data/nesta/api/nesta_case2746wp_mp__api.m
%%%%%%%%%%%%%%%%%%%%%%%%%%%%%%%%%%%%%%%%%%%%%%%%%%%%%%%%%%%%%%%%%%%%%%%%%%%
%%%%                                                                  %%%%%
%%%%      NICTA Energy System Test Case Archive (NESTA) - v0.1.5      %%%%%
%%%%            Optimal Power Flow - Active Power Increase            %%%%%
%%%%                       30 - October - 2014                        %%%%%
%%%%                                                                  %%%%%
%%%%%%%%%%%%%%%%%%%%%%%%%%%%%%%%%%%%%%%%%%%%%%%%%%%%%%%%%%%%%%%%%%%%%%%%%%%
function mpc = nesta_case2746wp_mp__api
mpc.version = '2';
mpc.baseMVA = 100.0;

%% area data
%	area	refbus
mpc.areas = [
	1	 18;
];

%% bus data
%	bus_i	type	Pd	Qd	Gs	Bs	area	Vm	Va	baseKV	zone	Vmax	Vmin
mpc.bus = [
	1	 1	 0.00	 0.00	 0.0	 0.0	 1	     1.1003	    -0.6148	 220.0	 1	     1.1100	     0.9500;
	2	 1	 0.00	 0.00	 0.0	 0.0	 1	     1.1018	     1.2132	 220.0	 1	     1.1100	     0.9500;
	3	 1	 0.00	 0.00	 0.0	 0.0	 1	     1.0645	   -26.3398	 220.0	 1	     1.1100	     0.9500;
	4	 1	 0.00	 0.00	 0.0	 0.0	 1	     1.0850	    -6.0863	 220.0	 1	     1.1100	     0.9500;
	5	 1	 0.00	 0.00	 0.0	 0.0	 1	     1.0851	    -6.0890	 220.0	 1	     1.1100	     0.9500;
	6	 1	 0.00	 0.00	 0.0	 0.0	 1	     1.0596	   -17.2205	 220.0	 1	     1.1100	     0.9500;
	7	 1	 0.00	 0.00	 0.0	 0.0	 1	     1.0597	   -17.2103	 220.0	 1	     1.1100	     0.9500;
	8	 1	 0.00	 0.00	 0.0	 0.0	 1	     1.0287	   -13.5915	 400.0	 1	     1.0500	     0.9500;
	9	 1	 0.00	 0.00	 0.0	 0.0	 1	     1.0287	   -13.5863	 400.0	 1	     1.0500	     0.9500;
	10	 1	 0.00	 0.00	 0.0	 0.0	 1	     1.0409	   -17.5655	 220.0	 1	     1.1100	     0.9500;
	11	 1	 0.00	 0.00	 0.0	 0.0	 1	     1.0408	   -17.5527	 220.0	 1	     1.1100	     0.9500;
	12	 1	 0.00	 0.00	 0.0	 0.0	 1	     1.0408	   -17.5442	 220.0	 1	     1.1100	     0.9500;
	13	 1	 0.00	 0.00	 0.0	 0.0	 1	     1.0274	   -11.7694	 400.0	 1	     1.0500	     0.9500;
	14	 1	 0.00	 0.00	 0.0	 0.0	 1	     1.0274	   -11.7596	 400.0	 1	     1.0500	     0.9500;
	15	 1	 0.00	 0.00	 0.0	 0.0	 1	     1.0278	   -16.6366	 400.0	 1	     1.0500	     0.9500;
	16	 1	 0.00	 0.00	 0.0	 0.0	 1	     1.0278	   -16.6366	 400.0	 1	     1.0500	     0.9500;
	17	 2	 11.14	 40.00	 0.0	 0.0	 1	     1.1051	   -21.2573	 220.0	 1	     1.1100	     0.9500;
	18	 2	 14.18	 40.00	 0.0	 0.0	 1	     1.1051	   -21.2562	 220.0	 1	     1.1100	     0.9500;
	19	 1	 0.00	 0.00	 0.0	 0.0	 1	     1.0899	    -4.9336	 220.0	 1	     1.1100	     0.9500;
	20	 1	 0.00	 0.00	 0.0	 0.0	 1	     1.0899	    -4.9325	 220.0	 1	     1.1100	     0.9500;
	21	 1	 0.00	 0.00	 0.0	 0.0	 1	     1.0606	   -19.1108	 220.0	 1	     1.1100	     0.9500;
	22	 1	 0.00	 0.00	 0.0	 0.0	 1	     1.0605	   -19.1125	 220.0	 1	     1.1100	     0.9500;
	23	 1	 0.00	 0.00	 0.0	 0.0	 1	     1.0442	   -17.4588	 220.0	 1	     1.1100	     0.9500;
	24	 1	 0.00	 0.00	 0.0	 0.0	 1	     1.0919	    -2.8028	 220.0	 1	     1.1100	     0.9500;
	25	 1	 0.00	 0.00	 0.0	 0.0	 1	     1.0154	   -13.8791	 400.0	 1	     1.0500	     0.9500;
	26	 2	 47.34	 72.05	 0.0	 0.0	 1	     1.1100	    -0.2510	 220.0	 1	     1.1100	     0.9500;
	27	 2	 86.60	 122.06	 0.0	 0.0	 1	     1.1100	     1.4731	 220.0	 1	     1.1100	     0.9500;
	28	 3	 60.77	 110.00	 0.0	 0.0	 1	     1.0461	     0.0000	 400.0	 1	     1.0500	     0.9500;
	29	 2	 60.87	 90.00	 0.0	 0.0	 1	     1.0461	     0.0057	 400.0	 1	     1.0500	     0.9500;
	30	 1	 0.00	 0.00	 0.0	 0.0	 1	     1.0482	   -18.3955	 220.0	 1	     1.1100	     0.9500;
	31	 1	 0.00	 0.00	 0.0	 0.0	 1	     1.0458	    -1.4350	 400.0	 1	     1.0500	     0.9500;
	32	 1	 0.00	 0.00	 0.0	 0.0	 1	     1.0386	   -17.9125	 220.0	 1	     1.1100	     0.9500;
	33	 1	 0.00	 0.00	 0.0	 0.0	 1	     1.0919	    -2.8018	 220.0	 1	     1.1100	     0.9500;
	34	 1	 0.00	 0.00	 0.0	 0.0	 1	     1.0926	    -9.5096	 220.0	 1	     1.1100	     0.9500;
	35	 1	 0.00	 0.00	 0.0	 0.0	 1	     1.0895	   -13.1443	 220.0	 2	     1.1100	     0.9500;
	36	 1	 0.00	 0.00	 0.0	 0.0	 1	     1.0925	   -12.8439	 220.0	 2	     1.1100	     0.9500;
	37	 1	 0.00	 0.00	 0.0	 0.0	 1	     1.0970	   -11.0927	 220.0	 2	     1.1100	     0.9500;
	38	 1	 0.00	 0.00	 0.0	 0.0	 1	     1.0970	   -11.0971	 220.0	 2	     1.1100	     0.9500;
	39	 1	 0.00	 0.00	 0.0	 0.0	 1	     1.0761	   -15.9950	 220.0	 2	     1.1100	     0.9500;
	40	 1	 0.00	 0.00	 0.0	 0.0	 1	     1.1041	    -9.3848	 220.0	 2	     1.1100	     0.9500;
	41	 1	 0.00	 0.00	 0.0	 0.0	 1	     1.1040	    -9.3830	 220.0	 2	     1.1100	     0.9500;
	42	 1	 0.00	 0.00	 0.0	 0.0	 1	     1.0436	    -9.7361	 400.0	 2	     1.0500	     0.9500;
	43	 2	 11.44	 0.00	 0.0	 0.0	 1	     1.1100	    -9.8167	 220.0	 2	     1.1100	     0.9500;
	44	 2	 24.00	 0.00	 0.0	 0.0	 1	     1.1100	    -9.7892	 220.0	 2	     1.1100	     0.9500;
	45	 2	 20.00	 0.00	 0.0	 0.0	 1	     1.0486	   -10.6004	 400.0	 2	     1.0500	     0.9500;
	46	 1	 0.00	 0.00	 0.0	 0.0	 1	     1.0487	   -10.6019	 400.0	 2	     1.0500	     0.9500;
	47	 1	 0.00	 0.00	 0.0	 0.0	 1	     1.1003	    -9.9747	 220.0	 2	     1.1100	     0.9500;
	48	 1	 0.00	 0.00	 0.0	 0.0	 1	     1.0353	   -15.4974	 400.0	 2	     1.0500	     0.9500;
	49	 1	 0.00	 0.00	 0.0	 0.0	 1	     1.0353	   -15.5063	 400.0	 2	     1.0500	     0.9500;
	50	 1	 0.00	 0.00	 0.0	 0.0	 1	     1.0500	   -11.7295	 400.0	 2	     1.0500	     0.9500;
	51	 1	 0.00	 0.00	 0.0	 0.0	 1	     1.0832	   -14.8319	 220.0	 2	     1.1100	     0.9500;
	52	 1	 0.00	 0.00	 0.0	 0.0	 1	     1.0832	   -14.8316	 220.0	 2	     1.1100	     0.9500;
	53	 1	 0.00	 0.00	 0.0	 0.0	 1	     1.0440	   -11.1980	 400.0	 2	     1.0500	     0.9500;
	54	 1	 0.00	 0.00	 0.0	 0.0	 1	     1.0440	   -11.1963	 400.0	 2	     1.0500	     0.9500;
	55	 2	 12.00	 0.00	 0.0	 0.0	 1	     1.1026	    -9.4089	 220.0	 2	     1.1100	     0.9500;
	56	 2	 11.44	 0.00	 0.0	 0.0	 1	     1.1025	    -9.4057	 220.0	 2	     1.1100	     0.9500;
	57	 2	 12.00	 0.00	 0.0	 0.0	 1	     1.0456	   -10.1708	 400.0	 2	     1.0500	     0.9500;
	58	 2	 11.44	 0.00	 0.0	 0.0	 1	     1.0457	   -10.1757	 400.0	 2	     1.0500	     0.9500;
	59	 2	 169.68	 60.00	 0.0	 0.0	 1	     1.1017	   -11.3008	 220.0	 2	     1.1100	     0.9500;
	60	 1	 0.00	 0.00	 0.0	 0.0	 1	     1.1017	   -11.3009	 220.0	 2	     1.1100	     0.9500;
	61	 1	 0.00	 0.00	 0.0	 0.0	 1	     1.1005	   -10.1341	 220.0	 2	     1.1100	     0.9500;
	62	 1	 0.00	 0.00	 0.0	 0.0	 1	     1.1036	   -11.0476	 220.0	 2	     1.1100	     0.9500;
	63	 1	 0.00	 0.00	 0.0	 0.0	 1	     1.1036	   -11.0508	 220.0	 2	     1.1100	     0.9500;
	64	 1	 0.00	 0.00	 0.0	 0.0	 1	     1.0468	   -11.7594	 400.0	 2	     1.0500	     0.9500;
	65	 1	 0.00	 0.00	 0.0	 0.0	 1	     1.0468	   -11.7714	 400.0	 2	     1.0500	     0.9500;
	66	 1	 0.00	 0.00	 0.0	 0.0	 1	     1.0893	   -12.6687	 220.0	 2	     1.1100	     0.9500;
	67	 1	 0.00	 0.00	 0.0	 0.0	 1	     1.0914	   -12.4238	 220.0	 2	     1.1100	     0.9500;
	68	 1	 0.00	 0.00	 0.0	 0.0	 1	     1.0836	   -14.3205	 220.0	 2	     1.1100	     0.9500;
	69	 1	 0.00	 0.00	 0.0	 0.0	 1	     1.1005	    -4.4706	 220.0	 3	     1.1100	     0.9500;
	70	 1	 7.12	 0.00	 0.0	 0.0	 1	     1.0980	    -9.7009	 220.0	 3	     1.1100	     0.9500;
	71	 1	 8.42	 0.93	 0.0	 0.0	 1	     1.0980	    -9.7036	 220.0	 3	     1.1100	     0.9500;
	72	 1	 0.00	 0.00	 0.0	 0.0	 1	     1.1059	    -4.3482	 220.0	 3	     1.1100	     0.9500;
	73	 1	 0.00	 0.00	 0.0	 0.0	 1	     1.1060	    -4.3391	 220.0	 3	     1.1100	     0.9500;
	74	 1	 0.00	 0.00	 0.0	 0.0	 1	     1.1014	    -4.7647	 220.0	 3	     1.1100	     0.9500;
	75	 1	 0.00	 0.00	 0.0	 0.0	 1	     1.1013	    -4.7688	 220.0	 3	     1.1100	     0.9500;
	76	 1	 0.00	 0.00	 0.0	 0.0	 1	     1.1085	    -3.4136	 220.0	 3	     1.1100	     0.9500;
	77	 1	 0.00	 0.00	 0.0	 0.0	 1	     1.1085	    -3.4216	 220.0	 3	     1.1100	     0.9500;
	78	 2	 27.35	 70.00	 0.0	 0.0	 1	     1.1100	    -3.7286	 220.0	 3	     1.1100	     0.9500;
	79	 2	 9.12	 21.00	 0.0	 0.0	 1	     1.1091	    -3.9027	 220.0	 3	     1.1100	     0.9500;
	80	 1	 10.46	 2.61	 0.0	 0.0	 1	     1.0985	    -5.1340	 220.0	 3	     1.1100	     0.9500;
	81	 1	 0.00	 0.00	 0.0	 0.0	 1	     1.0985	    -5.1328	 220.0	 3	     1.1100	     0.9500;
	82	 2	 35.45	 108.00	 0.0	 0.0	 1	     1.0435	    -3.6594	 400.0	 3	     1.0500	     0.9500;
	83	 1	 0.00	 0.00	 0.0	 0.0	 1	     1.1085	    -6.5068	 220.0	 3	     1.1100	     0.9500;
	84	 1	 0.00	 0.00	 0.0	 0.0	 1	     1.1065	    -3.9306	 220.0	 3	     1.1100	     0.9500;
	85	 1	 0.00	 0.00	 0.0	 0.0	 1	     1.1065	    -3.9325	 220.0	 3	     1.1100	     0.9500;
	86	 1	 38.38	 12.35	 0.0	 0.0	 1	     1.1011	    -4.3425	 220.0	 3	     1.1100	     0.9500;
	87	 1	 0.00	 0.00	 0.0	 0.0	 1	     1.1011	    -4.3485	 220.0	 3	     1.1100	     0.9500;
	88	 1	 0.00	 0.00	 0.0	 0.0	 1	     1.1040	    -3.8683	 220.0	 3	     1.1100	     0.9500;
	89	 1	 0.00	 0.00	 0.0	 0.0	 1	     1.1040	    -3.8696	 220.0	 3	     1.1100	     0.9500;
	90	 1	 0.00	 0.00	 0.0	 0.0	 1	     1.1044	    -3.8991	 220.0	 3	     1.1100	     0.9500;
	91	 1	 0.00	 0.00	 0.0	 0.0	 1	     1.1043	    -3.9046	 220.0	 3	     1.1100	     0.9500;
	92	 1	 0.00	 0.00	 0.0	 0.0	 1	     1.0456	    -2.2785	 400.0	 3	     1.0500	     0.9500;
	93	 1	 0.00	 0.00	 0.0	 0.0	 1	     1.0456	    -2.2804	 400.0	 3	     1.0500	     0.9500;
	94	 1	 0.00	 0.00	 0.0	 0.0	 1	     1.1078	    -3.6402	 220.0	 3	     1.1100	     0.9500;
	95	 1	 0.00	 0.00	 0.0	 0.0	 1	     1.1079	    -3.6396	 220.0	 3	     1.1100	     0.9500;
	96	 1	 0.00	 0.00	 0.0	 0.0	 1	     1.1052	    -5.5722	 220.0	 3	     1.1100	     0.9500;
	97	 1	 0.00	 0.00	 0.0	 0.0	 1	     1.1053	    -5.5768	 220.0	 3	     1.1100	     0.9500;
	98	 1	 16.23	 7.27	 0.0	 0.0	 1	     1.1054	    -4.6685	 220.0	 3	     1.1100	     0.9500;
	99	 1	 7.86	 0.26	 0.0	 0.0	 1	     1.1054	    -4.6735	 220.0	 3	     1.1100	     0.9500;
	100	 1	 0.00	 0.00	 0.0	 0.0	 1	     1.0981	    -9.6845	 220.0	 3	     1.1100	     0.9500;
	101	 1	 0.00	 0.00	 0.0	 0.0	 1	     1.0981	    -9.6842	 220.0	 3	     1.1100	     0.9500;
	102	 1	 0.00	 0.00	 0.0	 0.0	 1	     1.1036	    -4.4810	 220.0	 3	     1.1100	     0.9500;
	103	 1	 0.00	 0.00	 0.0	 0.0	 1	     1.1036	    -4.4911	 220.0	 3	     1.1100	     0.9500;
	104	 2	 14.18	 40.00	 0.0	 0.0	 1	     1.1100	    -3.3755	 220.0	 3	     1.1100	     0.9500;
	105	 2	 14.18	 40.00	 0.0	 0.0	 1	     1.1100	    -3.3761	 220.0	 3	     1.1100	     0.9500;
	106	 2	 7.09	 18.00	 0.0	 0.0	 1	     1.1077	    -3.5667	 220.0	 3	     1.1100	     0.9500;
	107	 2	 8.10	 15.00	 0.0	 0.0	 1	     1.1076	    -3.5663	 220.0	 3	     1.1100	     0.9500;
	108	 1	 1.04	 0.00	 0.0	 0.0	 1	     1.1033	    -5.1479	 220.0	 3	     1.1100	     0.9500;
	109	 1	 1.26	 0.00	 0.0	 0.0	 1	     1.1034	    -5.1544	 220.0	 3	     1.1100	     0.9500;
	110	 1	 0.00	 0.00	 0.0	 0.0	 1	     1.1035	    -6.3894	 220.0	 3	     1.1100	     0.9500;
	111	 1	 0.00	 0.00	 0.0	 0.0	 1	     1.0950	    -5.1667	 220.0	 3	     1.1100	     0.9500;
	112	 1	 0.00	 0.00	 0.0	 0.0	 1	     1.0950	    -5.1665	 220.0	 3	     1.1100	     0.9500;
	113	 1	 0.00	 0.00	 0.0	 0.0	 1	     1.0995	    -5.0446	 220.0	 3	     1.1100	     0.9500;
	114	 1	 0.00	 0.00	 0.0	 0.0	 1	     1.0996	    -5.0347	 220.0	 3	     1.1100	     0.9500;
	115	 1	 0.00	 0.00	 0.0	 0.0	 1	     1.0439	    -5.9525	 400.0	 3	     1.0500	     0.9500;
	116	 2	 0.00	 0.00	 0.0	 0.0	 1	     1.1077	    -4.3818	 220.0	 3	     1.1100	     0.9500;
	117	 2	 8.10	 15.00	 0.0	 0.0	 1	     1.1078	    -4.3750	 220.0	 3	     1.1100	     0.9500;
	118	 2	 5.57	 10.00	 0.0	 0.0	 1	     1.1079	    -5.7188	 220.0	 3	     1.1100	     0.9500;
	119	 1	 0.00	 0.00	 0.0	 0.0	 1	     1.1079	    -5.7307	 220.0	 3	     1.1100	     0.9500;
	120	 1	 0.00	 0.00	 0.0	 0.0	 1	     1.0486	   -10.3722	 400.0	 3	     1.0500	     0.9500;
	121	 1	 0.00	 0.00	 0.0	 0.0	 1	     1.0487	   -10.3644	 400.0	 3	     1.0500	     0.9500;
	122	 1	 0.00	 0.00	 0.0	 0.0	 1	     1.0500	    -6.1507	 400.0	 3	     1.0500	     0.9500;
	123	 1	 0.00	 0.00	 0.0	 0.0	 1	     1.0500	    -6.1454	 400.0	 3	     1.0500	     0.9500;
	124	 1	 0.00	 0.00	 0.0	 0.0	 1	     1.1039	    -6.4994	 220.0	 3	     1.1100	     0.9500;
	125	 2	 18.58	 21.86	 0.0	 0.0	 1	     1.1083	    -3.9535	 220.0	 3	     1.1100	     0.9500;
	126	 2	 28.84	 34.29	 0.0	 0.0	 1	     1.1083	    -3.9551	 220.0	 3	     1.1100	     0.9500;
	127	 2	 28.36	 66.00	 0.0	 0.0	 1	     1.0426	    -5.1241	 400.0	 3	     1.0500	     0.9500;
	128	 1	 0.00	 0.00	 0.0	 0.0	 1	     1.0426	    -5.1265	 400.0	 3	     1.0500	     0.9500;
	129	 1	 0.00	 0.00	 0.0	 0.0	 1	     1.1003	    -4.4658	 220.0	 3	     1.1100	     0.9500;
	130	 1	 0.00	 0.00	 0.0	 0.0	 1	     1.1004	    -4.4622	 220.0	 3	     1.1100	     0.9500;
	131	 1	 0.00	 0.00	 0.0	 0.0	 1	     1.1026	    -4.1537	 220.0	 3	     1.1100	     0.9500;
	132	 2	 3.04	 18.00	 0.0	 0.0	 1	     1.1100	    -2.6939	 220.0	 3	     1.1100	     0.9500;
	133	 2	 2.03	 6.00	 0.0	 0.0	 1	     1.1100	    -3.0674	 220.0	 3	     1.1100	     0.9500;
	134	 2	 15.65	 12.88	 0.0	 0.0	 1	     1.1100	   -10.7144	 220.0	 4	     1.1100	     0.9500;
	135	 2	 5.25	 -0.36	 0.0	 0.0	 1	     1.1099	   -10.7239	 220.0	 4	     1.1100	     0.9500;
	136	 1	 0.00	 0.00	 0.0	 0.0	 1	     1.0804	   -12.9770	 220.0	 4	     1.1100	     0.9500;
	137	 1	 0.00	 0.00	 0.0	 0.0	 1	     1.0863	   -11.1603	 220.0	 4	     1.1100	     0.9500;
	138	 1	 0.00	 0.00	 0.0	 0.0	 1	     1.0208	    -9.8995	 400.0	 4	     1.0500	     0.9500;
	139	 1	 0.00	 0.00	 0.0	 0.0	 1	     1.0208	    -9.9009	 400.0	 4	     1.0500	     0.9500;
	140	 1	 0.00	 0.00	 0.0	 0.0	 1	     1.0929	   -21.5173	 220.0	 4	     1.1100	     0.9500;
	141	 1	 0.00	 0.00	 0.0	 0.0	 1	     1.0937	   -27.8502	 220.0	 4	     1.1100	     0.9500;
	142	 1	 0.00	 0.00	 0.0	 0.0	 1	     1.0937	   -27.8502	 220.0	 4	     1.1100	     0.9500;
	143	 1	 0.00	 0.00	 0.0	 0.0	 1	     1.0980	   -24.8134	 220.0	 4	     1.1100	     0.9500;
	144	 1	 0.00	 0.00	 0.0	 0.0	 1	     1.0967	   -13.5120	 220.0	 4	     1.1100	     0.9500;
	145	 1	 0.00	 0.00	 0.0	 0.0	 1	     1.0967	   -13.5120	 220.0	 4	     1.1100	     0.9500;
	146	 2	 10.95	 -0.47	 0.0	 0.0	 1	     1.1097	   -13.5274	 220.0	 4	     1.1100	     0.9500;
	147	 2	 10.81	 -0.47	 0.0	 0.0	 1	     1.1096	   -13.5382	 220.0	 4	     1.1100	     0.9500;
	148	 2	 11.65	 6.86	 0.0	 0.0	 1	     1.1100	   -25.6750	 220.0	 4	     1.1100	     0.9500;
	149	 1	 1.66	 3.04	 0.0	 0.0	 1	     1.1100	   -25.6698	 220.0	 4	     1.1100	     0.9500;
	150	 2	 8.09	 -0.38	 0.0	 0.0	 1	     1.0367	   -22.1932	 400.0	 4	     1.0500	     0.9500;
	151	 2	 16.17	 -0.76	 0.0	 0.0	 1	     1.0368	   -22.1890	 400.0	 4	     1.0500	     0.9500;
	152	 1	 0.00	 0.00	 0.0	 0.0	 1	     1.0578	   -21.6421	 220.0	 4	     1.1100	     0.9500;
	153	 1	 0.00	 0.00	 0.0	 0.0	 1	     1.0746	   -20.2599	 220.0	 4	     1.1100	     0.9500;
	154	 1	 0.00	 0.00	 0.0	 0.0	 1	     1.0747	   -20.2536	 220.0	 4	     1.1100	     0.9500;
	155	 2	 30.55	 -3.56	 0.0	 0.0	 1	     1.1100	    -7.0014	 220.0	 4	     1.1100	     0.9500;
	156	 2	 14.68	 -3.57	 0.0	 0.0	 1	     1.1100	    -8.0966	 220.0	 4	     1.1100	     0.9500;
	157	 1	 0.00	 0.00	 0.0	 0.0	 1	     1.1100	    -7.0014	 220.0	 4	     1.1100	     0.9500;
	158	 1	 0.00	 0.00	 0.0	 0.0	 1	     1.0350	    -6.6407	 400.0	 4	     1.0500	     0.9500;
	159	 2	 7.38	 -1.78	 0.0	 0.0	 1	     1.0350	    -6.6353	 400.0	 4	     1.0500	     0.9500;
	160	 1	 0.00	 0.00	 0.0	 0.0	 1	     1.0920	   -28.0608	 220.0	 4	     1.1100	     0.9500;
	161	 1	 0.00	 0.00	 0.0	 0.0	 1	     1.0920	   -28.0608	 220.0	 4	     1.1100	     0.9500;
	162	 1	 0.00	 0.00	 0.0	 0.0	 1	     1.0178	   -10.8788	 400.0	 4	     1.0500	     0.9500;
	163	 1	 0.00	 0.00	 0.0	 0.0	 1	     1.0250	    -9.3400	 400.0	 4	     1.0500	     0.9500;
	164	 1	 0.00	 0.00	 0.0	 0.0	 1	     1.0250	    -9.3421	 400.0	 4	     1.0500	     0.9500;
	165	 2	 4.29	 -8.96	 0.0	 0.0	 1	     1.1100	   -13.6243	 220.0	 4	     1.1100	     0.9500;
	166	 2	 23.38	 7.18	 0.0	 0.0	 1	     1.1100	   -13.6428	 220.0	 4	     1.1100	     0.9500;
	167	 1	 0.00	 0.00	 0.0	 0.0	 1	     1.1100	   -13.6243	 220.0	 4	     1.1100	     0.9500;
	168	 1	 0.00	 0.00	 0.0	 0.0	 1	     1.0809	   -26.3699	 220.0	 4	     1.1100	     0.9500;
	169	 1	 0.00	 0.00	 0.0	 0.0	 1	     1.0928	   -27.9624	 220.0	 4	     1.1100	     0.9500;
	170	 1	 0.00	 0.00	 0.0	 0.0	 1	     1.0864	   -22.4585	 220.0	 4	     1.1100	     0.9500;
	171	 1	 0.00	 0.00	 0.0	 0.0	 1	     1.0863	   -22.4520	 220.0	 4	     1.1100	     0.9500;
	172	 1	 0.00	 0.00	 0.0	 0.0	 1	     1.0057	   -23.4965	 400.0	 4	     1.0500	     0.9500;
	173	 1	 0.00	 0.00	 0.0	 0.0	 1	     1.0057	   -23.4965	 400.0	 4	     1.0500	     0.9500;
	174	 1	 0.00	 0.00	 0.0	 0.0	 1	     1.0477	   -17.8925	 220.0	 4	     1.1100	     0.9500;
	175	 1	 0.00	 0.00	 0.0	 0.0	 1	     1.0477	   -17.8856	 220.0	 4	     1.1100	     0.9500;
	176	 1	 0.00	 0.00	 0.0	 0.0	 1	     1.0848	   -22.9876	 220.0	 4	     1.1100	     0.9500;
	177	 1	 0.00	 0.00	 0.0	 0.0	 1	     1.0867	   -12.4893	 220.0	 4	     1.1100	     0.9500;
	178	 1	 0.00	 0.00	 0.0	 0.0	 1	     1.0868	   -12.4831	 220.0	 4	     1.1100	     0.9500;
	179	 1	 0.00	 0.00	 0.0	 0.0	 1	     1.0900	   -11.9587	 220.0	 4	     1.1100	     0.9500;
	180	 1	 0.00	 0.00	 0.0	 0.0	 1	     1.0900	   -11.9587	 220.0	 4	     1.1100	     0.9500;
	181	 1	 0.00	 0.00	 0.0	 0.0	 1	     1.0449	   -19.4186	 220.0	 4	     1.1100	     0.9500;
	182	 1	 0.00	 0.00	 0.0	 0.0	 1	     1.0475	   -21.7861	 220.0	 5	     1.1100	     0.9500;
	183	 1	 0.00	 0.00	 0.0	 0.0	 1	     1.1100	   -23.4072	 220.0	 5	     1.1100	     0.9500;
	184	 1	 0.00	 0.00	 0.0	 0.0	 1	     1.0363	   -21.6721	 400.0	 5	     1.0500	     0.9500;
	185	 1	 0.00	 0.00	 0.0	 0.0	 1	     1.0363	   -21.6765	 400.0	 5	     1.0500	     0.9500;
	186	 1	 0.00	 0.00	 0.0	 0.0	 1	     1.0181	   -21.1981	 400.0	 5	     1.0500	     0.9500;
	187	 1	 0.00	 0.00	 0.0	 0.0	 1	     1.0182	   -21.2021	 400.0	 5	     1.0500	     0.9500;
	188	 1	 0.00	 0.00	 0.0	 0.0	 1	     1.0217	   -25.0322	 220.0	 5	     1.1100	     0.9500;
	189	 1	 0.00	 0.00	 0.0	 0.0	 1	     1.0218	   -25.0337	 220.0	 5	     1.1100	     0.9500;
	190	 1	 0.00	 0.00	 0.0	 0.0	 1	     1.0717	   -22.6141	 220.0	 5	     1.1100	     0.9500;
	191	 1	 0.00	 0.00	 0.0	 0.0	 1	     1.0716	   -22.6156	 220.0	 5	     1.1100	     0.9500;
	192	 1	 0.00	 0.00	 0.0	 0.0	 1	     0.9912	   -19.9084	 400.0	 5	     1.0500	     0.9500;
	193	 1	 0.00	 0.00	 0.0	 0.0	 1	     1.0568	   -20.9665	 220.0	 5	     1.1100	     0.9500;
	194	 1	 0.00	 0.00	 0.0	 0.0	 1	     1.0569	   -20.9626	 220.0	 5	     1.1100	     0.9500;
	195	 1	 0.00	 0.00	 0.0	 0.0	 1	     1.0076	   -23.1672	 400.0	 5	     1.0500	     0.9500;
	196	 1	 0.00	 0.00	 0.0	 0.0	 1	     1.0075	   -23.1721	 400.0	 5	     1.0500	     0.9500;
	197	 1	 0.00	 0.00	 0.0	 0.0	 1	     1.0631	   -25.6443	 220.0	 5	     1.1100	     0.9500;
	198	 1	 0.00	 0.00	 0.0	 0.0	 1	     1.0631	   -25.6376	 220.0	 5	     1.1100	     0.9500;
	199	 1	 0.00	 0.00	 0.0	 0.0	 1	     1.0382	   -19.7478	 400.0	 5	     1.0500	     0.9500;
	200	 1	 0.00	 0.00	 0.0	 0.0	 1	     1.0382	   -19.7424	 400.0	 5	     1.0500	     0.9500;
...
];

%% generator data
%	bus	Pg	Qg	Qmax	Qmin	Vg	mBase	status	Pmax	Pmin	Pc1	Pc2	Qc1min	Qc1max	Qc2min	Qc2max	ramp_agc	ramp_10	ramp_30	ramp_q	apf
mpc.gen = [
	17	 153.0	 170.0	 204.0	 -204.0	 1.09088	 233.2	 1	 296	 70.0	 0.0	 0.0	 0.0	 0.0	 0.0	 0.0	 0.0	 0.0	 0.0	 0.0	 0.0; % NG
	18	 153.0	 95.0	 120.0	 -117.0	 1.09091	 233.2	 1	 233	 70.0	 0.0	 0.0	 0.0	 0.0	 0.0	 0.0	 0.0	 0.0	 0.0	 0.0	 0.0; % NG
	26	 301.0	 26.0	 258.0	 -258.0	 1.09091	 430.5	 1	 516	 145.0	 0.0	 0.0	 0.0	 0.0	 0.0	 0.0	 0.0	 0.0	 0.0	 0.0	 0.0; % NG
	26	 301.0	 26.0	 220.0	 -187.0	 1.09091	 421.9	 1	 373	 145.0	 0.0	 0.0	 0.0	 0.0	 0.0	 0.0	 0.0	 0.0	 0.0	 0.0	 0.0; % NG
	27	 301.0	 53.0	 276.0	 -276.0	 1.09091	 421.9	 1	 551	 145.0	 0.0	 0.0	 0.0	 0.0	 0.0	 0.0	 0.0	 0.0	 0.0	 0.0	 0.0; % NG
	27	 301.0	 53.0	 225.0	 -225.0	 1.09091	 430.5	 1	 449	 145.0	 0.0	 0.0	 0.0	 0.0	 0.0	 0.0	 0.0	 0.0	 0.0	 0.0	 0.0; % NG
	27	 301.0	 53.0	 248.0	 -248.0	 1.09091	 430.5	 1	 495	 145.0	 0.0	 0.0	 0.0	 0.0	 0.0	 0.0	 0.0	 0.0	 0.0	 0.0	 0.0; % COW
	28	 301.0	 6.0	 220.0	 -204.0	 1.0325	 430.5	 1	 408	 145.0	 0.0	 0.0	 0.0	 0.0	 0.0	 0.0	 0.0	 0.0	 0.0	 0.0	 0.0; % COW
	28	 301.0	 6.0	 220.0	 -154.0	 1.0325	 430.5	 1	 308	 145.0	 0.0	 0.0	 0.0	 0.0	 0.0	 0.0	 0.0	 0.0	 0.0	 0.0	 0.0; % COW
	28	 301.0	 6.0	 230.0	 -230.0	 1.0325	 430.5	 1	 460	 145.0	 0.0	 0.0	 0.0	 0.0	 0.0	 0.0	 0.0	 0.0	 0.0	 0.0	 0.0; % COW
	29	 301.0	 -62.0	 220.0	 -200.0	 1.0325	 430.5	 1	 400	 145.0	 0.0	 0.0	 0.0	 0.0	 0.0	 0.0	 0.0	 0.0	 0.0	 0.0	 0.0; % NG
	29	 301.0	 -62.0	 290.0	 -290.0	 1.0325	 430.5	 1	 580	 145.0	 0.0	 0.0	 0.0	 0.0	 0.0	 0.0	 0.0	 0.0	 0.0	 0.0	 0.0; % NG
	29	 301.0	 -62.0	 220.0	 -183.0	 1.0325	 430.5	 1	 366	 145.0	 0.0	 0.0	 0.0	 0.0	 0.0	 0.0	 0.0	 0.0	 0.0	 0.0	 0.0; % NG
	43	 147.0	 18.0	 120.0	 -104.0	 1.09091	 246.2	 1	 207	 67.5	 0.0	 0.0	 0.0	 0.0	 0.0	 0.0	 0.0	 0.0	 0.0	 0.0	 0.0; % NG
	43	 0.0	 0.0	 120.0	 -29.0	 1.09091	 275.3	 0	 57	 135.0	 0.0	 0.0	 0.0	 0.0	 0.0	 0.0	 0.0	 0.0	 0.0	 0.0	 0.0; % NG
	43	 147.0	 18.0	 209.0	 -209.0	 1.09091	 275.3	 1	 418	 67.5	 0.0	 0.0	 0.0	 0.0	 0.0	 0.0	 0.0	 0.0	 0.0	 0.0	 0.0; % NG
	44	 147.0	 16.0	 135.0	 -135.0	 1.09096	 255.0	 1	 269	 67.5	 0.0	 0.0	 0.0	 0.0	 0.0	 0.0	 0.0	 0.0	 0.0	 0.0	 0.0; % NG
	44	 147.0	 16.0	 120.0	 -107.0	 1.09096	 255.0	 1	 214	 67.5	 0.0	 0.0	 0.0	 0.0	 0.0	 0.0	 0.0	 0.0	 0.0	 0.0	 0.0; % NG
	44	 0.0	 0.0	 120.0	 -97.0	 1.09096	 255.0	 0	 193	 67.5	 0.0	 0.0	 0.0	 0.0	 0.0	 0.0	 0.0	 0.0	 0.0	 0.0	 0.0; % NG
	45	 0.0	 0.0	 350.0	 -299.0	 1.0325	 610.3	 0	 598	 175.0	 0.0	 0.0	 0.0	 0.0	 0.0	 0.0	 0.0	 0.0	 0.0	 0.0	 0.0; % COW
	45	 362.0	 120.0	 350.0	 -309.0	 1.0325	 610.3	 1	 617	 175.0	 0.0	 0.0	 0.0	 0.0	 0.0	 0.0	 0.0	 0.0	 0.0	 0.0	 0.0; % COW
	55	 141.0	 -164.0	 196.8	 -196.8	 1.09121	 255.0	 1	 302	 65.0	 0.0	 0.0	 0.0	 0.0	 0.0	 0.0	 0.0	 0.0	 0.0	 0.0	 0.0; % NG
	56	 141.0	 -17.0	 120.0	 -78.0	 1.09115	 255.0	 1	 155	 65.0	 0.0	 0.0	 0.0	 0.0	 0.0	 0.0	 0.0	 0.0	 0.0	 0.0	 0.0; % NG
	56	 141.0	 -17.0	 121.0	 -121.0	 1.09115	 255.0	 1	 241	 65.0	 0.0	 0.0	 0.0	 0.0	 0.0	 0.0	 0.0	 0.0	 0.0	 0.0	 0.0; % NG
	57	 142.0	 86.0	 169.0	 -169.0	 1.03336	 255.0	 1	 337	 65.0	 0.0	 0.0	 0.0	 0.0	 0.0	 0.0	 0.0	 0.0	 0.0	 0.0	 0.0; % NG
	58	 0.0	 0.0	 120.0	 -20.0	 1.03337	 255.0	 0	 10	 130.0	 0.0	 0.0	 0.0	 0.0	 0.0	 0.0	 0.0	 0.0	 0.0	 0.0	 0.0; % NG
	58	 142.0	 -20.0	 139.0	 -139.0	 1.03337	 255.0	 1	 278	 65.0	 0.0	 0.0	 0.0	 0.0	 0.0	 0.0	 0.0	 0.0	 0.0	 0.0	 0.0; % NG
	58	 142.0	 -20.0	 120.0	 -85.0	 1.03337	 255.0	 1	 169	 65.0	 0.0	 0.0	 0.0	 0.0	 0.0	 0.0	 0.0	 0.0	 0.0	 0.0	 0.0; % COW
	59	 90.0	 -55.0	 121.0	 -121.0	 1.08415	 85.4	 1	 241	 39.25	 0.0	 0.0	 0.0	 0.0	 0.0	 0.0	 0.0	 0.0	 0.0	 0.0	 0.0; % PEL
	78	 152.0	 25.0	 202.0	 -202.0	 1.09091	 248.3	 1	 403	 70.0	 0.0	 0.0	 0.0	 0.0	 0.0	 0.0	 0.0	 0.0	 0.0	 0.0	 0.0; % NG
	78	 152.0	 25.0	 136.0	 -136.0	 1.09091	 248.3	 1	 271	 70.0	 0.0	 0.0	 0.0	 0.0	 0.0	 0.0	 0.0	 0.0	 0.0	 0.0	 0.0; % NG
	79	 0.0	 0.0	 105.0	 -59.0	 1.09034	 243.8	 0	 117	 70.0	 0.0	 0.0	 0.0	 0.0	 0.0	 0.0	 0.0	 0.0	 0.0	 0.0	 0.0; % NG
	79	 0.0	 0.0	 105.0	 -69.0	 1.09034	 248.3	 0	 138	 70.0	 0.0	 0.0	 0.0	 0.0	 0.0	 0.0	 0.0	 0.0	 0.0	 0.0	 0.0; % NG
	79	 152.0	 37.0	 158.0	 -158.0	 1.09034	 248.3	 1	 315	 70.0	 0.0	 0.0	 0.0	 0.0	 0.0	 0.0	 0.0	 0.0	 0.0	 0.0	 0.0; % NG
	82	 231.0	 114.0	 207.0	 -207.0	 1.02993	 425.8	 1	 414	 110.0	 0.0	 0.0	 0.0	 0.0	 0.0	 0.0	 0.0	 0.0	 0.0	 0.0	 0.0; % NG
	82	 231.0	 114.0	 174.0	 -136.8	 1.02993	 408.9	 1	 260	 110.0	 0.0	 0.0	 0.0	 0.0	 0.0	 0.0	 0.0	 0.0	 0.0	 0.0	 0.0; % NG
	104	 145.0	 228.0	 273.6	 -273.6	 1.09091	 251.8	 1	 170	 67.0	 0.0	 0.0	 0.0	 0.0	 0.0	 0.0	 0.0	 0.0	 0.0	 0.0	 0.0; % NG
	105	 145.0	 195.0	 234.0	 -234.0	 1.09091	 251.8	 1	 210	 67.0	 0.0	 0.0	 0.0	 0.0	 0.0	 0.0	 0.0	 0.0	 0.0	 0.0	 0.0; % NG
	106	 90.0	 -62.0	 90.0	 -74.4	 1.09091	 150.0	 1	 134	 39.5	 0.0	 0.0	 0.0	 0.0	 0.0	 0.0	 0.0	 0.0	 0.0	 0.0	 0.0; % COW
	107	 90.0	 36.0	 90.0	 -76.0	 1.09091	 150.0	 1	 151	 39.5	 0.0	 0.0	 0.0	 0.0	 0.0	 0.0	 0.0	 0.0	 0.0	 0.0	 0.0; % NG
	116	 0.0	 0.0	 115.0	 -115.0	 1.09042	 150.0	 0	 229	 45.0	 0.0	 0.0	 0.0	 0.0	 0.0	 0.0	 0.0	 0.0	 0.0	 0.0	 0.0; % NG
	117	 82.0	 -40.0	 190.0	 -190.0	 1.09046	 150.0	 1	 379	 35.0	 0.0	 0.0	 0.0	 0.0	 0.0	 0.0	 0.0	 0.0	 0.0	 0.0	 0.0; % COW
	118	 92.0	 -46.0	 122.0	 -122.0	 1.089	 129.3	 1	 243	 40.0	 0.0	 0.0	 0.0	 0.0	 0.0	 0.0	 0.0	 0.0	 0.0	 0.0	 0.0; % NG
	125	 172.0	 -228.0	 273.6	 -273.6	 1.09091	 242.9	 1	 433	 80.0	 0.0	 0.0	 0.0	 0.0	 0.0	 0.0	 0.0	 0.0	 0.0	 0.0	 0.0; % NG
	126	 152.0	 40.0	 203.0	 -203.0	 1.09082	 240.2	 1	 405	 70.0	 0.0	 0.0	 0.0	 0.0	 0.0	 0.0	 0.0	 0.0	 0.0	 0.0	 0.0; % NG
	126	 0.0	 0.0	 80.0	 -5.0	 1.09082	 229.4	 0	 1	 160.0	 0.0	 0.0	 0.0	 0.0	 0.0	 0.0	 0.0	 0.0	 0.0	 0.0	 0.0; % NG
	127	 152.0	 -49.0	 104.0	 -104.0	 1.02869	 238.5	 1	 207	 70.0	 0.0	 0.0	 0.0	 0.0	 0.0	 0.0	 0.0	 0.0	 0.0	 0.0	 0.0; % NG
	127	 172.0	 -49.0	 111.0	 -111.0	 1.02869	 241.7	 1	 222	 80.0	 0.0	 0.0	 0.0	 0.0	 0.0	 0.0	 0.0	 0.0	 0.0	 0.0	 0.0; % NG
	132	 85.0	 -7.0	 121.0	 -121.0	 1.09091	 131.2	 1	 241	 37.0	 0.0	 0.0	 0.0	 0.0	 0.0	 0.0	 0.0	 0.0	 0.0	 0.0	 0.0; % COW
	132	 85.0	 -7.0	 62.0	 -62.0	 1.09091	 131.2	 1	 123	 37.0	 0.0	 0.0	 0.0	 0.0	 0.0	 0.0	 0.0	 0.0	 0.0	 0.0	 0.0; % NG
	133	 0.0	 0.0	 95.0	 -95.0	 1.09091	 131.2	 0	 190	 37.0	 0.0	 0.0	 0.0	 0.0	 0.0	 0.0	 0.0	 0.0	 0.0	 0.0	 0.0; % NG
	133	 86.0	 -25.0	 73.0	 -73.0	 1.09091	 131.2	 1	 146	 37.0	 0.0	 0.0	 0.0	 0.0	 0.0	 0.0	 0.0	 0.0	 0.0	 0.0	 0.0; % NG
	134	 0.0	 0.0	 90.0	 -56.0	 1.08882	 150.0	 0	 112	 51.0	 0.0	 0.0	 0.0	 0.0	 0.0	 0.0	 0.0	 0.0	 0.0	 0.0	 0.0; % NG
	134	 111.0	 -1.0	 152.0	 -152.0	 1.08882	 150.0	 1	 304	 50.0	 0.0	 0.0	 0.0	 0.0	 0.0	 0.0	 0.0	 0.0	 0.0	 0.0	 0.0; % NG
	135	 0.0	 0.0	 166.0	 -166.0	 1.08867	 150.0	 0	 332	 51.0	 0.0	 0.0	 0.0	 0.0	 0.0	 0.0	 0.0	 0.0	 0.0	 0.0	 0.0; % NG
	146	 42.0	 11.0	 22.0	 -22.0	 1.09012	 51.4	 1	 44	 15.0	 0.0	 0.0	 0.0	 0.0	 0.0	 0.0	 0.0	 0.0	 0.0	 0.0	 0.0; % NG
	146	 42.0	 11.0	 59.0	 -59.0	 1.09012	 51.4	 1	 117	 15.0	 0.0	 0.0	 0.0	 0.0	 0.0	 0.0	 0.0	 0.0	 0.0	 0.0	 0.0; % NG
	147	 0.0	 0.0	 172.0	 -172.0	 1.09011	 150.0	 0	 344	 45.0	 0.0	 0.0	 0.0	 0.0	 0.0	 0.0	 0.0	 0.0	 0.0	 0.0	 0.0; % COW
	148	 103.0	 -9.0	 120.0	 -118.0	 1.09091	 252.4	 1	 236	 45.0	 0.0	 0.0	 0.0	 0.0	 0.0	 0.0	 0.0	 0.0	 0.0	 0.0	 0.0; % NG
	148	 0.0	 0.0	 120.0	 -13.0	 1.09091	 237.5	 0	 26	 135.0	 0.0	 0.0	 0.0	 0.0	 0.0	 0.0	 0.0	 0.0	 0.0	 0.0	 0.0; % NG
	148	 0.0	 0.0	 120.0	 -65.0	 1.09091	 237.5	 0	 129	 67.5	 0.0	 0.0	 0.0	 0.0	 0.0	 0.0	 0.0	 0.0	 0.0	 0.0	 0.0; % COW
	148	 103.0	 -9.0	 120.0	 -95.0	 1.09091	 252.4	 1	 189	 45.0	 0.0	 0.0	 0.0	 0.0	 0.0	 0.0	 0.0	 0.0	 0.0	 0.0	 0.0; % NG
	150	 102.0	 103.0	 149.0	 -149.0	 1.03246	 252.4	 1	 297	 45.0	 0.0	 0.0	 0.0	 0.0	 0.0	 0.0	 0.0	 0.0	 0.0	 0.0	 0.0; % NG
	151	 102.0	 13.0	 171.0	 -171.0	 1.0325	 252.4	 1	 342	 45.0	 0.0	 0.0	 0.0	 0.0	 0.0	 0.0	 0.0	 0.0	 0.0	 0.0	 0.0; % NG
	151	 102.0	 13.0	 120.0	 -80.0	 1.0325	 252.4	 1	 159	 45.0	 0.0	 0.0	 0.0	 0.0	 0.0	 0.0	 0.0	 0.0	 0.0	 0.0	 0.0; % COW
	155	 106.0	 -34.0	 120.0	 -53.0	 1.09091	 263.9	 1	 106	 47.0	 0.0	 0.0	 0.0	 0.0	 0.0	 0.0	 0.0	 0.0	 0.0	 0.0	 0.0; % NG
	155	 106.0	 -34.0	 120.0	 -84.0	 1.09091	 263.9	 1	 167	 47.0	 0.0	 0.0	 0.0	 0.0	 0.0	 0.0	 0.0	 0.0	 0.0	 0.0	 0.0; % NG
	155	 0.0	 0.0	 120.0	 -7.0	 1.09091	 237.5	 0	 13	 130.0	 0.0	 0.0	 0.0	 0.0	 0.0	 0.0	 0.0	 0.0	 0.0	 0.0	 0.0; % NG
	155	 116.0	 -34.0	 120.0	 -91.0	 1.09091	 287.3	 1	 182	 52.0	 0.0	 0.0	 0.0	 0.0	 0.0	 0.0	 0.0	 0.0	 0.0	 0.0	 0.0; % COW
	156	 0.0	 0.0	 976.0	 -976.0	 1.09091	 237.5	 0	 1952	 65.0	 0.0	 0.0	 0.0	 0.0	 0.0	 0.0	 0.0	 0.0	 0.0	 0.0	 0.0; % COW
	156	 142.0	 -17.0	 120.0	 -102.0	 1.09091	 237.5	 1	 203	 65.0	 0.0	 0.0	 0.0	 0.0	 0.0	 0.0	 0.0	 0.0	 0.0	 0.0	 0.0; % NG
	156	 132.0	 -17.0	 120.0	 -97.0	 1.09091	 238.4	 1	 194	 60.0	 0.0	 0.0	 0.0	 0.0	 0.0	 0.0	 0.0	 0.0	 0.0	 0.0	 0.0; % NG
	156	 132.0	 -17.0	 120.0	 -85.0	 1.09091	 238.4	 1	 170	 60.0	 0.0	 0.0	 0.0	 0.0	 0.0	 0.0	 0.0	 0.0	 0.0	 0.0	 0.0; % NG
	159	 132.0	 111.0	 120.0	 -133.2	 1.00535	 238.4	 1	 169	 60.0	 0.0	 0.0	 0.0	 0.0	 0.0	 0.0	 0.0	 0.0	 0.0	 0.0	 0.0; % NG
	165	 161.0	 3.0	 145.0	 -145.0	 1.09084	 233.2	 1	 289	 75.0	 0.0	 0.0	 0.0	 0.0	 0.0	 0.0	 0.0	 0.0	 0.0	 0.0	 0.0; % NG
	165	 161.0	 3.0	 186.0	 -186.0	 1.09084	 233.2	 1	 371	 75.0	 0.0	 0.0	 0.0	 0.0	 0.0	 0.0	 0.0	 0.0	 0.0	 0.0	 0.0; % NG
	166	 162.0	 19.0	 157.0	 -157.0	 1.09091	 233.2	 1	 313	 75.0	 0.0	 0.0	 0.0	 0.0	 0.0	 0.0	 0.0	 0.0	 0.0	 0.0	 0.0; % NG
	166	 162.0	 19.0	 262.0	 -262.0	 1.09091	 233.2	 1	 524	 75.0	 0.0	 0.0	 0.0	 0.0	 0.0	 0.0	 0.0	 0.0	 0.0	 0.0	 0.0; % NG
	205	 151.0	 86.0	 110.0	 -103.2	 1.0325	 210.1	 1	 168	 70.0	 0.0	 0.0	 0.0	 0.0	 0.0	 0.0	 0.0	 0.0	 0.0	 0.0	 0.0; % NG
	205	 151.0	 86.0	 143.0	 -143.0	 1.0325	 210.1	 1	 285	 70.0	 0.0	 0.0	 0.0	 0.0	 0.0	 0.0	 0.0	 0.0	 0.0	 0.0	 0.0; % COW
	205	 0.0	 0.0	 110.0	 -60.0	 1.0325	 210.1	 0	 102	 70.0	 0.0	 0.0	 0.0	 0.0	 0.0	 0.0	 0.0	 0.0	 0.0	 0.0	 0.0; % COW
	206	 151.0	 78.0	 138.0	 -138.0	 1.0325	 210.1	 1	 275	 70.0	 0.0	 0.0	 0.0	 0.0	 0.0	 0.0	 0.0	 0.0	 0.0	 0.0	 0.0; % NG
	215	 48.0	 -2.0	 63.0	 -63.0	 1.08646	 58.5	 1	 125	 18.5395	 0.0	 0.0	 0.0	 0.0	 0.0	 0.0	 0.0	 0.0	 0.0	 0.0	 0.0; % NG
	215	 44.0	 -2.0	 24.0	 -24.0	 1.08646	 53.9	 1	 48	 16.854	 0.0	 0.0	 0.0	 0.0	 0.0	 0.0	 0.0	 0.0	 0.0	 0.0	 0.0; % NG
	215	 44.0	 -2.0	 49.0	 -49.0	 1.08646	 53.9	 1	 97	 16.854	 0.0	 0.0	 0.0	 0.0	 0.0	 0.0	 0.0	 0.0	 0.0	 0.0	 0.0; % NG
	215	 26.0	 -2.0	 59.0	 -59.0	 1.08646	 30.5	 1	 118	 7.753	 0.0	 0.0	 0.0	 0.0	 0.0	 0.0	 0.0	 0.0	 0.0	 0.0	 0.0; % NG
	239	 29.0	 32.0	 38.4	 -38.4	 1.03337	 15.4	 1	 45	 2.0	 0.0	 0.0	 0.0	 0.0	 0.0	 0.0	 0.0	 0.0	 0.0	 0.0	 0.0; % NG
	246	 300.0	 186.0	 220.0	 -223.2	 1.03502	 430.5	 1	 316	 145.0	 0.0	 0.0	 0.0	 0.0	 0.0	 0.0	 0.0	 0.0	 0.0	 0.0	 0.0; % NG
	291	 14.0	 -2.0	 23.0	 -23.0	 1.06439	 3.2	 1	 46	 1.0	 0.0	 0.0	 0.0	 0.0	 0.0	 0.0	 0.0	 0.0	 0.0	 0.0	 0.0; % PEL
	294	 21.0	 -4.0	 24.0	 -24.0	 1.05278	 4.8	 1	 48	 1.5	 0.0	 0.0	 0.0	 0.0	 0.0	 0.0	 0.0	 0.0	 0.0	 0.0	 0.0; % PEL
	306	 23.0	 13.0	 24.0	 -24.0	 1.05332	 24.0	 1	 47	 4.5835	 0.0	 0.0	 0.0	 0.0	 0.0	 0.0	 0.0	 0.0	 0.0	 0.0	 0.0; % COW
	306	 30.0	 13.0	 49.0	 -49.0	 1.05332	 27.9	 1	 97	 8.148	 0.0	 0.0	 0.0	 0.0	 0.0	 0.0	 0.0	 0.0	 0.0	 0.0	 0.0; % COW
	306	 25.0	 13.0	 40.0	 -40.0	 1.05332	 31.0	 1	 79	 5.602	 0.0	 0.0	 0.0	 0.0	 0.0	 0.0	 0.0	 0.0	 0.0	 0.0	 0.0; % NG
	306	 23.0	 13.0	 15.6	 -15.6	 1.05332	 26.9	 1	 25	 4.5835	 0.0	 0.0	 0.0	 0.0	 0.0	 0.0	 0.0	 0.0	 0.0	 0.0	 0.0; % NG
	306	 23.0	 13.0	 30.0	 -30.0	 1.05332	 28.1	 1	 60	 4.5835	 0.0	 0.0	 0.0	 0.0	 0.0	 0.0	 0.0	 0.0	 0.0	 0.0	 0.0; % NG
	307	 49.0	 17.0	 114.0	 -114.0	 1.05854	 57.0	 1	 227	 18.25	 0.0	 0.0	 0.0	 0.0	 0.0	 0.0	 0.0	 0.0	 0.0	 0.0	 0.0; % COW
	307	 49.0	 17.0	 89.0	 -89.0	 1.05854	 57.0	 1	 177	 18.25	 0.0	 0.0	 0.0	 0.0	 0.0	 0.0	 0.0	 0.0	 0.0	 0.0	 0.0; % NG
	308	 43.0	 11.0	 86.0	 -86.0	 1.067	 36.7	 1	 171	 16.0	 0.0	 0.0	 0.0	 0.0	 0.0	 0.0	 0.0	 0.0	 0.0	 0.0	 0.0; % COW
	308	 51.0	 11.0	 49.0	 -49.0	 1.067	 57.7	 1	 98	 20.0	 0.0	 0.0	 0.0	 0.0	 0.0	 0.0	 0.0	 0.0	 0.0	 0.0	 0.0; % NG
	310	 46.0	 15.0	 69.0	 -69.0	 1.07303	 53.9	 1	 137	 17.5	 0.0	 0.0	 0.0	 0.0	 0.0	 0.0	 0.0	 0.0	 0.0	 0.0	 0.0; % COW
	310	 86.0	 15.0	 52.0	 -52.0	 1.07303	 103.6	 1	 104	 37.5	 0.0	 0.0	 0.0	 0.0	 0.0	 0.0	 0.0	 0.0	 0.0	 0.0	 0.0; % COW
	311	 57.0	 22.0	 58.0	 -58.0	 1.06272	 64.0	 1	 115	 22.5	 0.0	 0.0	 0.0	 0.0	 0.0	 0.0	 0.0	 0.0	 0.0	 0.0	 0.0; % NG
	362	 52.0	 2.0	 33.0	 -33.0	 1.08888	 47.8	 1	 66	 18.9	 0.0	 0.0	 0.0	 0.0	 0.0	 0.0	 0.0	 0.0	 0.0	 0.0	 0.0; % PEL
	363	 52.0	 14.0	 28.0	 -28.0	 1.06039	 47.8	 1	 55	 18.9	 0.0	 0.0	 0.0	 0.0	 0.0	 0.0	 0.0	 0.0	 0.0	 0.0	 0.0; % PEL
	364	 50.0	 1.0	 37.0	 -37.0	 1.1049	 47.8	 1	 73	 18.9	 0.0	 0.0	 0.0	 0.0	 0.0	 0.0	 0.0	 0.0	 0.0	 0.0	 0.0; % PEL
	364	 57.0	 1.0	 46.0	 -46.0	 1.1049	 71.0	 1	 91	 22.5	 0.0	 0.0	 0.0	 0.0	 0.0	 0.0	 0.0	 0.0	 0.0	 0.0	 0.0; % NG
	365	 50.0	 10.0	 38.0	 -38.0	 1.06981	 47.8	 1	 75	 18.9	 0.0	 0.0	 0.0	 0.0	 0.0	 0.0	 0.0	 0.0	 0.0	 0.0	 0.0; % NG
	365	 50.0	 10.0	 26.0	 -26.0	 1.06981	 47.8	 1	 51	 18.9	 0.0	 0.0	 0.0	 0.0	 0.0	 0.0	 0.0	 0.0	 0.0	 0.0	 0.0; % PEL
	382	 27.0	 5.0	 21.0	 -21.0	 1.08182	 55.9	 1	 41	 7.5	 0.0	 0.0	 0.0	 0.0	 0.0	 0.0	 0.0	 0.0	 0.0	 0.0	 0.0; % PEL
	382	 132.0	 5.0	 127.0	 -127.0	 1.08182	 255.9	 1	 254	 60.0	 0.0	 0.0	 0.0	 0.0	 0.0	 0.0	 0.0	 0.0	 0.0	 0.0	 0.0; % NG
	383	 29.0	 -7.0	 38.0	 -38.0	 1.10054	 55.9	 1	 76	 7.5	 0.0	 0.0	 0.0	 0.0	 0.0	 0.0	 0.0	 0.0	 0.0	 0.0	 0.0; % NG
	386	 17.0	 21.0	 25.2	 -25.2	 1.05805	 4.8	 1	 37	 1.5	 0.0	 0.0	 0.0	 0.0	 0.0	 0.0	 0.0	 0.0	 0.0	 0.0	 0.0; % PEL
	421	 29.0	 13.0	 28.0	 -28.0	 1.04857	 7.7	 1	 56	 2.0	 0.0	 0.0	 0.0	 0.0	 0.0	 0.0	 0.0	 0.0	 0.0	 0.0	 0.0; % PEL
	431	 21.0	 -24.0	 40.0	 -40.0	 1.08943	 13.6	 1	 79	 3.5	 0.0	 0.0	 0.0	 0.0	 0.0	 0.0	 0.0	 0.0	 0.0	 0.0	 0.0; % PEL
	440	 17.0	 13.0	 16.0	 -16.0	 1.0288	 3.6	 1	 32	 1.25	 0.0	 0.0	 0.0	 0.0	 0.0	 0.0	 0.0	 0.0	 0.0	 0.0	 0.0; % PEL
	447	 19.0	 -1.0	 20.0	 -14.0	 1.0498	 21.3	 1	 28	 1.75	 0.0	 0.0	 0.0	 0.0	 0.0	 0.0	 0.0	 0.0	 0.0	 0.0	 0.0; % NG
	447	 19.0	 -1.0	 20.0	 -17.0	 1.0498	 21.3	 1	 33	 1.75	 0.0	 0.0	 0.0	 0.0	 0.0	 0.0	 0.0	 0.0	 0.0	 0.0	 0.0; % NG
	463	 0.0	 9.0	 10.8	 -10.8	 1.0465	 4.0	 1	 0	 0.0	 0.0	 0.0	 0.0	 0.0	 0.0	 0.0	 0.0	 0.0	 0.0	 0.0	 0.0; % SYNC
	482	 17.0	 22.0	 26.4	 -26.4	 1.02656	 1.7	 1	 35	 0.7	 0.0	 0.0	 0.0	 0.0	 0.0	 0.0	 0.0	 0.0	 0.0	 0.0	 0.0; % PEL
	490	 21.0	 10.0	 51.0	 -51.0	 1.05535	 5.3	 1	 102	 1.75	 0.0	 0.0	 0.0	 0.0	 0.0	 0.0	 0.0	 0.0	 0.0	 0.0	 0.0; % NG
	522	 0.0	 28.0	 33.6	 -33.6	 1.06929	 1.9	 1	 0	 0.0	 0.0	 0.0	 0.0	 0.0	 0.0	 0.0	 0.0	 0.0	 0.0	 0.0	 0.0; % SYNC
	533	 18.0	 -6.0	 18.0	 -18.0	 1.07198	 1.9	 1	 36	 0.25	 0.0	 0.0	 0.0	 0.0	 0.0	 0.0	 0.0	 0.0	 0.0	 0.0	 0.0; % COW
	534	 46.0	 5.0	 44.0	 -44.0	 1.06429	 53.9	 1	 87	 17.945	 0.0	 0.0	 0.0	 0.0	 0.0	 0.0	 0.0	 0.0	 0.0	 0.0	 0.0; % PEL
	534	 32.0	 5.0	 33.0	 -33.0	 1.06429	 34.9	 1	 65	 11.043	 0.0	 0.0	 0.0	 0.0	 0.0	 0.0	 0.0	 0.0	 0.0	 0.0	 0.0; % NG
	534	 32.0	 5.0	 54.0	 -54.0	 1.06429	 34.9	 1	 107	 11.043	 0.0	 0.0	 0.0	 0.0	 0.0	 0.0	 0.0	 0.0	 0.0	 0.0	 0.0; % PEL
	534	 83.0	 5.0	 99.0	 -99.0	 1.06429	 107.7	 1	 197	 36.2345	 0.0	 0.0	 0.0	 0.0	 0.0	 0.0	 0.0	 0.0	 0.0	 0.0	 0.0; % COW
	534	 83.0	 5.0	 44.0	 -44.0	 1.06429	 107.7	 1	 87	 36.2345	 0.0	 0.0	 0.0	 0.0	 0.0	 0.0	 0.0	 0.0	 0.0	 0.0	 0.0; % PEL
	535	 36.0	 15.0	 23.0	 -23.0	 1.05783	 36.5	 1	 45	 12.2865	 0.0	 0.0	 0.0	 0.0	 0.0	 0.0	 0.0	 0.0	 0.0	 0.0	 0.0; % PEL
	535	 35.0	 15.0	 20.0	 -20.0	 1.05783	 35.6	 1	 40	 11.9025	 0.0	 0.0	 0.0	 0.0	 0.0	 0.0	 0.0	 0.0	 0.0	 0.0	 0.0; % PEL
	535	 107.0	 15.0	 102.0	 -102.0	 1.05783	 128.1	 1	 203	 47.995	 0.0	 0.0	 0.0	 0.0	 0.0	 0.0	 0.0	 0.0	 0.0	 0.0	 0.0; % NG
	535	 92.0	 15.0	 92.0	 -92.0	 1.05783	 108.7	 1	 184	 40.3155	 0.0	 0.0	 0.0	 0.0	 0.0	 0.0	 0.0	 0.0	 0.0	 0.0	 0.0; % NG
	549	 24.0	 5.0	 13.0	 -13.0	 1.0394	 1.7	 1	 26	 0.7	 0.0	 0.0	 0.0	 0.0	 0.0	 0.0	 0.0	 0.0	 0.0	 0.0	 0.0; % PEL
	557	 42.0	 9.0	 87.0	 -87.0	 1.04037	 34.4	 1	 174	 12.862	 0.0	 0.0	 0.0	 0.0	 0.0	 0.0	 0.0	 0.0	 0.0	 0.0	 0.0; % NG
	557	 37.0	 9.0	 44.0	 -44.0	 1.04037	 28.5	 1	 88	 10.592	 0.0	 0.0	 0.0	 0.0	 0.0	 0.0	 0.0	 0.0	 0.0	 0.0	 0.0; % PEL
	557	 36.0	 9.0	 45.0	 -45.0	 1.04037	 26.5	 1	 90	 9.8355	 0.0	 0.0	 0.0	 0.0	 0.0	 0.0	 0.0	 0.0	 0.0	 0.0	 0.0; % PEL
	557	 39.0	 9.0	 23.0	 -23.0	 1.04037	 30.4	 1	 46	 11.3485	 0.0	 0.0	 0.0	 0.0	 0.0	 0.0	 0.0	 0.0	 0.0	 0.0	 0.0; % PEL
	557	 42.0	 9.0	 85.0	 -85.0	 1.04037	 34.4	 1	 170	 12.862	 0.0	 0.0	 0.0	 0.0	 0.0	 0.0	 0.0	 0.0	 0.0	 0.0	 0.0; % NG
	558	 51.0	 22.0	 44.0	 -44.0	 1.03685	 34.4	 1	 88	 15.516	 0.0	 0.0	 0.0	 0.0	 0.0	 0.0	 0.0	 0.0	 0.0	 0.0	 0.0; % NG
	558	 51.0	 22.0	 32.0	 -32.0	 1.03685	 34.4	 1	 63	 15.516	 0.0	 0.0	 0.0	 0.0	 0.0	 0.0	 0.0	 0.0	 0.0	 0.0	 0.0; % NG
	558	 43.0	 22.0	 41.0	 -41.0	 1.03685	 26.5	 1	 82	 11.4085	 0.0	 0.0	 0.0	 0.0	 0.0	 0.0	 0.0	 0.0	 0.0	 0.0	 0.0; % PEL
	558	 50.0	 22.0	 65.0	 -65.0	 1.03685	 34.4	 1	 130	 15.0595	 0.0	 0.0	 0.0	 0.0	 0.0	 0.0	 0.0	 0.0	 0.0	 0.0	 0.0; % NG
	594	 17.0	 9.0	 11.0	 -11.0	 1.06495	 4.5	 1	 22	 1.29	 0.0	 0.0	 0.0	 0.0	 0.0	 0.0	 0.0	 0.0	 0.0	 0.0	 0.0; % PEL
	601	 19.0	 2.0	 10.0	 -10.0	 1.06191	 5.5	 1	 19	 2.525	 0.0	 0.0	 0.0	 0.0	 0.0	 0.0	 0.0	 0.0	 0.0	 0.0	 0.0; % PEL
	622	 121.0	 -7.0	 101.0	 -101.0	 1.0778	 114.0	 1	 201	 55.0	 0.0	 0.0	 0.0	 0.0	 0.0	 0.0	 0.0	 0.0	 0.0	 0.0	 0.0; % NG
	622	 0.0	 0.0	 30.0	 0.0	 1.0778	 65.3	 0	 0	 0.0	 0.0	 0.0	 0.0	 0.0	 0.0	 0.0	 0.0	 0.0	 0.0	 0.0	 0.0; % SYNC
	626	 14.0	 -5.0	 11.0	 -11.0	 1.07287	 3.0	 1	 21	 1.4	 0.0	 0.0	 0.0	 0.0	 0.0	 0.0	 0.0	 0.0	 0.0	 0.0	 0.0; % PEL
	630	 18.0	 -1.0	 44.0	 -44.0	 1.06945	 6.4	 1	 88	 2.805	 0.0	 0.0	 0.0	 0.0	 0.0	 0.0	 0.0	 0.0	 0.0	 0.0	 0.0; % NG
	631	 19.0	 3.0	 29.0	 -29.0	 1.06942	 7.4	 1	 57	 3.365	 0.0	 0.0	 0.0	 0.0	 0.0	 0.0	 0.0	 0.0	 0.0	 0.0	 0.0; % PEL
	655	 20.0	 -2.0	 42.0	 -42.0	 1.03169	 1.3	 1	 83	 0.615	 0.0	 0.0	 0.0	 0.0	 0.0	 0.0	 0.0	 0.0	 0.0	 0.0	 0.0; % NG
	660	 146.0	 -4.0	 168.0	 -168.0	 1.08206	 255.0	 1	 336	 67.5	 0.0	 0.0	 0.0	 0.0	 0.0	 0.0	 0.0	 0.0	 0.0	 0.0	 0.0; % NG
	661	 146.0	 33.0	 234.0	 -234.0	 1.08182	 255.0	 1	 467	 67.5	 0.0	 0.0	 0.0	 0.0	 0.0	 0.0	 0.0	 0.0	 0.0	 0.0	 0.0; % COW
	667	 18.0	 15.0	 18.0	 -18.0	 1.03727	 2.2	 1	 29	 0.955	 0.0	 0.0	 0.0	 0.0	 0.0	 0.0	 0.0	 0.0	 0.0	 0.0	 0.0; % PEL
	671	 23.0	 15.0	 40.0	 -40.0	 1.06812	 10.1	 1	 79	 4.765	 0.0	 0.0	 0.0	 0.0	 0.0	 0.0	 0.0	 0.0	 0.0	 0.0	 0.0; % NG
	673	 18.0	 8.0	 10.0	 -10.0	 1.06495	 4.4	 1	 20	 1.68	 0.0	 0.0	 0.0	 0.0	 0.0	 0.0	 0.0	 0.0	 0.0	 0.0	 0.0; % PEL
	681	 199.0	 -5.0	 289.0	 -289.0	 1.08024	 192.4	 1	 577	 95.0	 0.0	 0.0	 0.0	 0.0	 0.0	 0.0	 0.0	 0.0	 0.0	 0.0	 0.0; % COW
	681	 34.0	 -5.0	 30.0	 -18.0	 1.08024	 77.5	 1	 36	 12.499	 0.0	 0.0	 0.0	 0.0	 0.0	 0.0	 0.0	 0.0	 0.0	 0.0	 0.0; % PEL
	687	 23.0	 -2.0	 27.0	 -27.0	 1.07512	 12.5	 1	 54	 5.605	 0.0	 0.0	 0.0	 0.0	 0.0	 0.0	 0.0	 0.0	 0.0	 0.0	 0.0; % NG
	699	 24.0	 4.0	 48.0	 -48.0	 1.0746	 7.5	 1	 95	 3.365	 0.0	 0.0	 0.0	 0.0	 0.0	 0.0	 0.0	 0.0	 0.0	 0.0	 0.0; % PEL
	702	 13.0	 -2.0	 11.0	 -11.0	 1.0721	 1.6	 1	 22	 0.56	 0.0	 0.0	 0.0	 0.0	 0.0	 0.0	 0.0	 0.0	 0.0	 0.0	 0.0; % PEL
	712	 21.0	 9.0	 14.0	 -14.0	 1.07103	 10.8	 1	 28	 5.0	 0.0	 0.0	 0.0	 0.0	 0.0	 0.0	 0.0	 0.0	 0.0	 0.0	 0.0; % COW
	718	 21.0	 19.0	 22.8	 -22.8	 1.03111	 1.9	 1	 29	 0.785	 0.0	 0.0	 0.0	 0.0	 0.0	 0.0	 0.0	 0.0	 0.0	 0.0	 0.0; % PEL
	722	 16.0	 13.0	 15.6	 -15.6	 1.06069	 3.0	 1	 16	 1.4	 0.0	 0.0	 0.0	 0.0	 0.0	 0.0	 0.0	 0.0	 0.0	 0.0	 0.0; % PEL
	731	 16.0	 23.0	 27.6	 -27.6	 1.06199	 4.3	 1	 20	 0.84	 0.0	 0.0	 0.0	 0.0	 0.0	 0.0	 0.0	 0.0	 0.0	 0.0	 0.0; % PEL
	736	 140.0	 -30.0	 120.0	 -77.0	 1.08182	 255.0	 1	 153	 65.0	 0.0	 0.0	 0.0	 0.0	 0.0	 0.0	 0.0	 0.0	 0.0	 0.0	 0.0; % NG
	740	 16.0	 8.0	 15.0	 -15.0	 1.06599	 4.3	 1	 30	 1.12	 0.0	 0.0	 0.0	 0.0	 0.0	 0.0	 0.0	 0.0	 0.0	 0.0	 0.0; % PEL
	747	 25.0	 26.0	 31.2	 -31.2	 1.04853	 6.7	 1	 33	 2.915	 0.0	 0.0	 0.0	 0.0	 0.0	 0.0	 0.0	 0.0	 0.0	 0.0	 0.0; % COW
	759	 102.0	 -19.0	 127.0	 -127.0	 1.0699	 105.2	 1	 253	 45.0	 0.0	 0.0	 0.0	 0.0	 0.0	 0.0	 0.0	 0.0	 0.0	 0.0	 0.0; % NG
	760	 0.0	 0.0	 0.0	 0.0	 1.06824	 1.3	 0	 0	 0.0	 0.0	 0.0	 0.0	 0.0	 0.0	 0.0	 0.0	 0.0	 0.0	 0.0	 0.0; % SYNC
	778	 26.0	 3.0	 30.0	 -25.0	 1.05918	 32.4	 1	 49	 6.17	 0.0	 0.0	 0.0	 0.0	 0.0	 0.0	 0.0	 0.0	 0.0	 0.0	 0.0; % NG
	780	 13.0	 -2.0	 15.0	 -15.0	 1.07776	 1.9	 1	 30	 0.84	 0.0	 0.0	 0.0	 0.0	 0.0	 0.0	 0.0	 0.0	 0.0	 0.0	 0.0; % PEL
	783	 18.0	 -3.0	 24.0	 -24.0	 1.07336	 6.7	 1	 48	 3.0	 0.0	 0.0	 0.0	 0.0	 0.0	 0.0	 0.0	 0.0	 0.0	 0.0	 0.0; % PEL
	788	 21.0	 8.0	 14.0	 -14.0	 1.04756	 95.9	 1	 28	 1.0	 0.0	 0.0	 0.0	 0.0	 0.0	 0.0	 0.0	 0.0	 0.0	 0.0	 0.0; % PEL
	792	 19.0	 6.0	 23.0	 -16.0	 1.05369	 71.8	 1	 32	 0.0	 0.0	 0.0	 0.0	 0.0	 0.0	 0.0	 0.0	 0.0	 0.0	 0.0	 0.0; % PEL
	792	 0.0	 0.0	 23.0	 -3.0	 1.05369	 71.8	 0	 6	 0.0	 0.0	 0.0	 0.0	 0.0	 0.0	 0.0	 0.0	 0.0	 0.0	 0.0	 0.0; % PEL
	792	 0.0	 0.0	 11.0	 -6.0	 1.05369	 23.7	 0	 11	 0.0	 0.0	 0.0	 0.0	 0.0	 0.0	 0.0	 0.0	 0.0	 0.0	 0.0	 0.0; % PEL
	792	 0.0	 0.0	 58.0	 -58.0	 1.05369	 23.3	 0	 116	 0.0	 0.0	 0.0	 0.0	 0.0	 0.0	 0.0	 0.0	 0.0	 0.0	 0.0	 0.0; % NG
	803	 13.0	 -9.0	 25.0	 -25.0	 1.08195	 55.9	 1	 49	 0.0	 0.0	 0.0	 0.0	 0.0	 0.0	 0.0	 0.0	 0.0	 0.0	 0.0	 0.0; % NG
	804	 14.0	 23.0	 27.6	 -27.6	 1.07278	 120.4	 1	 24	 0.0	 0.0	 0.0	 0.0	 0.0	 0.0	 0.0	 0.0	 0.0	 0.0	 0.0	 0.0; % COW
	809	 0.0	 0.0	 0.0	 0.0	 1.07004	 3.3	 0	 0	 0.0	 0.0	 0.0	 0.0	 0.0	 0.0	 0.0	 0.0	 0.0	 0.0	 0.0	 0.0; % SYNC
	815	 16.0	 1.0	 27.0	 -27.0	 1.07164	 3.9	 1	 54	 1.68	 0.0	 0.0	 0.0	 0.0	 0.0	 0.0	 0.0	 0.0	 0.0	 0.0	 0.0; % PEL
	834	 20.0	 28.0	 33.6	 -33.6	 1.05238	 1.5	 1	 23	 0.56	 0.0	 0.0	 0.0	 0.0	 0.0	 0.0	 0.0	 0.0	 0.0	 0.0	 0.0; % NG
	840	 42.0	 16.0	 66.0	 -66.0	 1.05932	 51.6	 1	 131	 15.0	 0.0	 0.0	 0.0	 0.0	 0.0	 0.0	 0.0	 0.0	 0.0	 0.0	 0.0; % COW
	840	 42.0	 16.0	 31.0	 -31.0	 1.05932	 51.6	 1	 61	 15.0	 0.0	 0.0	 0.0	 0.0	 0.0	 0.0	 0.0	 0.0	 0.0	 0.0	 0.0; % NG
	844	 15.0	 1.0	 26.0	 -26.0	 1.07659	 3.5	 1	 51	 0.95	 0.0	 0.0	 0.0	 0.0	 0.0	 0.0	 0.0	 0.0	 0.0	 0.0	 0.0; % PEL
	848	 21.0	 8.0	 44.0	 -44.0	 1.05907	 5.6	 1	 88	 1.505	 0.0	 0.0	 0.0	 0.0	 0.0	 0.0	 0.0	 0.0	 0.0	 0.0	 0.0; % NG
	854	 26.0	 4.0	 20.0	 -20.0	 1.06201	 14.6	 1	 39	 3.5	 0.0	 0.0	 0.0	 0.0	 0.0	 0.0	 0.0	 0.0	 0.0	 0.0	 0.0; % PEL
	873	 77.0	 13.0	 46.0	 -46.0	 1.08182	 87.7	 1	 92	 34.0	 0.0	 0.0	 0.0	 0.0	 0.0	 0.0	 0.0	 0.0	 0.0	 0.0	 0.0; % PEL
	876	 0.0	 0.0	 0.0	 0.0	 1.0397	 1.9	 0	 0	 0.0	 0.0	 0.0	 0.0	 0.0	 0.0	 0.0	 0.0	 0.0	 0.0	 0.0	 0.0; % SYNC
	896	 0.0	 0.0	 45.0	 -10.0	 1.06882	 65.8	 0	 0	 0.0	 0.0	 0.0	 0.0	 0.0	 0.0	 0.0	 0.0	 0.0	 0.0	 0.0	 0.0; % SYNC
	896	 0.0	 0.0	 45.0	 -10.0	 1.06882	 71.1	 0	 0	 0.0	 0.0	 0.0	 0.0	 0.0	 0.0	 0.0	 0.0	 0.0	 0.0	 0.0	 0.0; % SYNC
	896	 69.0	 21.0	 58.0	 -58.0	 1.06882	 71.1	 1	 116	 27.5	 0.0	 0.0	 0.0	 0.0	 0.0	 0.0	 0.0	 0.0	 0.0	 0.0	 0.0; % NG
	902	 21.0	 -3.0	 46.0	 -46.0	 1.0143	 0.3	 1	 91	 0.0555	 0.0	 0.0	 0.0	 0.0	 0.0	 0.0	 0.0	 0.0	 0.0	 0.0	 0.0; % NG
	903	 0.0	 0.0	 0.0	 0.0	 1.01428	 2.5	 0	 0	 0.0	 0.0	 0.0	 0.0	 0.0	 0.0	 0.0	 0.0	 0.0	 0.0	 0.0	 0.0; % SYNC
	952	 20.0	 5.0	 36.0	 -36.0	 1.06079	 3.0	 1	 71	 1.3	 0.0	 0.0	 0.0	 0.0	 0.0	 0.0	 0.0	 0.0	 0.0	 0.0	 0.0; % NG
	958	 0.0	 0.0	 0.0	 0.0	 1.04967	 2.5	 0	 0	 0.0	 0.0	 0.0	 0.0	 0.0	 0.0	 0.0	 0.0	 0.0	 0.0	 0.0	 0.0; % SYNC
	972	 35.0	 2.0	 32.0	 -25.0	 1.08182	 54.0	 1	 49	 13.5	 0.0	 0.0	 0.0	 0.0	 0.0	 0.0	 0.0	 0.0	 0.0	 0.0	 0.0; % PEL
	972	 0.0	 0.0	 32.0	 -0.0	 1.08182	 42.5	 0	 0	 0.0	 0.0	 0.0	 0.0	 0.0	 0.0	 0.0	 0.0	 0.0	 0.0	 0.0	 0.0; % SYNC
	972	 11.0	 2.0	 9.0	 -9.0	 1.08182	 11.4	 1	 17	 1.5	 0.0	 0.0	 0.0	 0.0	 0.0	 0.0	 0.0	 0.0	 0.0	 0.0	 0.0; % PEL
	972	 88.0	 2.0	 110.0	 -89.0	 1.08182	 162.2	 1	 178	 40.0	 0.0	 0.0	 0.0	 0.0	 0.0	 0.0	 0.0	 0.0	 0.0	 0.0	 0.0; % NG
	973	 88.0	 32.0	 110.0	 -77.0	 1.081	 162.2	 1	 153	 40.0	 0.0	 0.0	 0.0	 0.0	 0.0	 0.0	 0.0	 0.0	 0.0	 0.0	 0.0; % NG
...
];

%% generator cost data
%	2	startup	shutdown	n	c(n-1)	...	c0
mpc.gencost = [
	2	 0.0	 0.0	 3	   0.000000	   1.562648	   0.000000; % NG
	2	 0.0	 0.0	 3	   0.000000	   0.790255	   0.000000; % NG
	2	 0.0	 0.0	 3	   0.000000	   0.756651	   0.000000; % NG
	2	 0.0	 0.0	 3	   0.000000	   0.787471	   0.000000; % NG
	2	 0.0	 0.0	 3	   0.000000	   1.182664	   0.000000; % NG
	2	 0.0	 0.0	 3	   0.000000	   1.112416	   0.000000; % NG
	2	 0.0	 0.0	 3	   0.000000	   0.638026	   0.000000; % COW
	2	 0.0	 0.0	 3	   0.000000	   1.301108	   0.000000; % COW
	2	 0.0	 0.0	 3	   0.000000	   1.176180	   0.000000; % COW
	2	 0.0	 0.0	 3	   0.000000	   0.988920	   0.000000; % COW
	2	 0.0	 0.0	 3	   0.000000	   0.974475	   0.000000; % NG
	2	 0.0	 0.0	 3	   0.000000	   0.921533	   0.000000; % NG
	2	 0.0	 0.0	 3	   0.000000	   1.272238	   0.000000; % NG
	2	 0.0	 0.0	 3	   0.000000	   1.244688	   0.000000; % NG
	2	 0.0	 0.0	 3	   0.000000	   1.010420	   0.000000; % NG
	2	 0.0	 0.0	 3	   0.000000	   1.160728	   0.000000; % NG
	2	 0.0	 0.0	 3	   0.000000	   0.854345	   0.000000; % NG
	2	 0.0	 0.0	 3	   0.000000	   1.331075	   0.000000; % NG
	2	 0.0	 0.0	 3	   0.000000	   0.816708	   0.000000; % NG
	2	 0.0	 0.0	 3	   0.000000	   1.176703	   0.000000; % COW
	2	 0.0	 0.0	 3	   0.000000	   1.020547	   0.000000; % COW
	2	 0.0	 0.0	 3	   0.000000	   1.110297	   0.000000; % NG
	2	 0.0	 0.0	 3	   0.000000	   1.109907	   0.000000; % NG
	2	 0.0	 0.0	 3	   0.000000	   1.405979	   0.000000; % NG
	2	 0.0	 0.0	 3	   0.000000	   0.849037	   0.000000; % NG
	2	 0.0	 0.0	 3	   0.000000	   1.392231	   0.000000; % NG
	2	 0.0	 0.0	 3	   0.000000	   1.253661	   0.000000; % NG
	2	 0.0	 0.0	 3	   0.000000	   0.940028	   0.000000; % COW
	2	 0.0	 0.0	 3	   0.000000	   6.953152	   0.000000; % PEL
	2	 0.0	 0.0	 3	   0.000000	   0.885918	   0.000000; % NG
	2	 0.0	 0.0	 3	   0.000000	   1.251510	   0.000000; % NG
	2	 0.0	 0.0	 3	   0.000000	   1.228253	   0.000000; % NG
	2	 0.0	 0.0	 3	   0.000000	   1.061442	   0.000000; % NG
	2	 0.0	 0.0	 3	   0.000000	   1.064716	   0.000000; % NG
	2	 0.0	 0.0	 3	   0.000000	   1.408144	   0.000000; % NG
	2	 0.0	 0.0	 3	   0.000000	   1.090411	   0.000000; % NG
	2	 0.0	 0.0	 3	   0.000000	   1.273461	   0.000000; % NG
	2	 0.0	 0.0	 3	   0.000000	   1.060868	   0.000000; % NG
	2	 0.0	 0.0	 3	   0.000000	   0.675902	   0.000000; % COW
	2	 0.0	 0.0	 3	   0.000000	   1.027016	   0.000000; % NG
	2	 0.0	 0.0	 3	   0.000000	   1.049764	   0.000000; % NG
	2	 0.0	 0.0	 3	   0.000000	   1.350673	   0.000000; % COW
	2	 0.0	 0.0	 3	   0.000000	   0.915838	   0.000000; % NG
	2	 0.0	 0.0	 3	   0.000000	   0.935164	   0.000000; % NG
	2	 0.0	 0.0	 3	   0.000000	   0.869621	   0.000000; % NG
	2	 0.0	 0.0	 3	   0.000000	   1.041908	   0.000000; % NG
	2	 0.0	 0.0	 3	   0.000000	   0.935218	   0.000000; % NG
	2	 0.0	 0.0	 3	   0.000000	   1.115322	   0.000000; % NG
	2	 0.0	 0.0	 3	   0.000000	   0.889133	   0.000000; % COW
	2	 0.0	 0.0	 3	   0.000000	   1.171366	   0.000000; % NG
	2	 0.0	 0.0	 3	   0.000000	   0.877165	   0.000000; % NG
	2	 0.0	 0.0	 3	   0.000000	   1.144438	   0.000000; % NG
	2	 0.0	 0.0	 3	   0.000000	   0.703600	   0.000000; % NG
	2	 0.0	 0.0	 3	   0.000000	   0.782833	   0.000000; % NG
	2	 0.0	 0.0	 3	   0.000000	   1.273234	   0.000000; % NG
	2	 0.0	 0.0	 3	   0.000000	   1.164574	   0.000000; % NG
	2	 0.0	 0.0	 3	   0.000000	   1.054533	   0.000000; % NG
	2	 0.0	 0.0	 3	   0.000000	   0.965146	   0.000000; % COW
	2	 0.0	 0.0	 3	   0.000000	   0.769714	   0.000000; % NG
	2	 0.0	 0.0	 3	   0.000000	   1.110677	   0.000000; % NG
	2	 0.0	 0.0	 3	   0.000000	   0.619982	   0.000000; % COW
	2	 0.0	 0.0	 3	   0.000000	   0.641353	   0.000000; % NG
	2	 0.0	 0.0	 3	   0.000000	   1.050350	   0.000000; % NG
	2	 0.0	 0.0	 3	   0.000000	   1.049975	   0.000000; % NG
	2	 0.0	 0.0	 3	   0.000000	   0.915193	   0.000000; % COW
	2	 0.0	 0.0	 3	   0.000000	   0.754851	   0.000000; % NG
	2	 0.0	 0.0	 3	   0.000000	   1.450957	   0.000000; % NG
	2	 0.0	 0.0	 3	   0.000000	   0.972552	   0.000000; % NG
	2	 0.0	 0.0	 3	   0.000000	   0.907099	   0.000000; % COW
	2	 0.0	 0.0	 3	   0.000000	   0.780591	   0.000000; % COW
	2	 0.0	 0.0	 3	   0.000000	   0.919955	   0.000000; % NG
	2	 0.0	 0.0	 3	   0.000000	   1.332874	   0.000000; % NG
	2	 0.0	 0.0	 3	   0.000000	   0.872634	   0.000000; % NG
	2	 0.0	 0.0	 3	   0.000000	   1.145725	   0.000000; % NG
	2	 0.0	 0.0	 3	   0.000000	   1.065482	   0.000000; % NG
	2	 0.0	 0.0	 3	   0.000000	   1.244761	   0.000000; % NG
	2	 0.0	 0.0	 3	   0.000000	   1.203945	   0.000000; % NG
	2	 0.0	 0.0	 3	   0.000000	   0.908455	   0.000000; % NG
	2	 0.0	 0.0	 3	   0.000000	   1.113338	   0.000000; % NG
	2	 0.0	 0.0	 3	   0.000000	   1.390057	   0.000000; % COW
	2	 0.0	 0.0	 3	   0.000000	   0.698554	   0.000000; % COW
	2	 0.0	 0.0	 3	   0.000000	   1.121505	   0.000000; % NG
	2	 0.0	 0.0	 3	   0.000000	   1.380670	   0.000000; % NG
	2	 0.0	 0.0	 3	   0.000000	   0.757642	   0.000000; % NG
	2	 0.0	 0.0	 3	   0.000000	   1.248616	   0.000000; % NG
	2	 0.0	 0.0	 3	   0.000000	   1.279467	   0.000000; % NG
	2	 0.0	 0.0	 3	   0.000000	   1.038175	   0.000000; % NG
	2	 0.0	 0.0	 3	   0.000000	   0.977063	   0.000000; % NG
	2	 0.0	 0.0	 3	   0.000000	   7.335859	   0.000000; % PEL
	2	 0.0	 0.0	 3	   0.000000	   6.750974	   0.000000; % PEL
	2	 0.0	 0.0	 3	   0.000000	   0.364436	   0.000000; % COW
	2	 0.0	 0.0	 3	   0.000000	   0.576432	   0.000000; % COW
	2	 0.0	 0.0	 3	   0.000000	   0.948212	   0.000000; % NG
	2	 0.0	 0.0	 3	   0.000000	   1.113706	   0.000000; % NG
	2	 0.0	 0.0	 3	   0.000000	   1.393735	   0.000000; % NG
	2	 0.0	 0.0	 3	   0.000000	   0.833306	   0.000000; % COW
	2	 0.0	 0.0	 3	   0.000000	   1.416634	   0.000000; % NG
	2	 0.0	 0.0	 3	   0.000000	   0.196023	   0.000000; % COW
	2	 0.0	 0.0	 3	   0.000000	   0.961167	   0.000000; % NG
	2	 0.0	 0.0	 3	   0.000000	   0.838256	   0.000000; % COW
	2	 0.0	 0.0	 3	   0.000000	   0.846288	   0.000000; % COW
	2	 0.0	 0.0	 3	   0.000000	   0.661454	   0.000000; % NG
	2	 0.0	 0.0	 3	   0.000000	   7.105821	   0.000000; % PEL
	2	 0.0	 0.0	 3	   0.000000	   6.940716	   0.000000; % PEL
	2	 0.0	 0.0	 3	   0.000000	   5.948279	   0.000000; % PEL
	2	 0.0	 0.0	 3	   0.000000	   1.130812	   0.000000; % NG
	2	 0.0	 0.0	 3	   0.000000	   1.123727	   0.000000; % NG
	2	 0.0	 0.0	 3	   0.000000	   6.686059	   0.000000; % PEL
	2	 0.0	 0.0	 3	   0.000000	   7.409578	   0.000000; % PEL
	2	 0.0	 0.0	 3	   0.000000	   0.840669	   0.000000; % NG
	2	 0.0	 0.0	 3	   0.000000	   0.783664	   0.000000; % NG
	2	 0.0	 0.0	 3	   0.000000	   6.899354	   0.000000; % PEL
	2	 0.0	 0.0	 3	   0.000000	   6.976050	   0.000000; % PEL
	2	 0.0	 0.0	 3	   0.000000	   6.498698	   0.000000; % PEL
	2	 0.0	 0.0	 3	   0.000000	   7.360777	   0.000000; % PEL
	2	 0.0	 0.0	 3	   0.000000	   0.870363	   0.000000; % NG
	2	 0.0	 0.0	 3	   0.000000	   1.043230	   0.000000; % NG
	2	 0.0	 0.0	 3	   0.000000	   0.000000	   0.000000; % SYNC
	2	 0.0	 0.0	 3	   0.000000	   6.817296	   0.000000; % PEL
	2	 0.0	 0.0	 3	   0.000000	   1.180513	   0.000000; % NG
	2	 0.0	 0.0	 3	   0.000000	   0.000000	   0.000000; % SYNC
	2	 0.0	 0.0	 3	   0.000000	   0.516723	   0.000000; % COW
	2	 0.0	 0.0	 3	   0.000000	   7.894007	   0.000000; % PEL
	2	 0.0	 0.0	 3	   0.000000	   1.352342	   0.000000; % NG
	2	 0.0	 0.0	 3	   0.000000	   6.679350	   0.000000; % PEL
	2	 0.0	 0.0	 3	   0.000000	   0.773998	   0.000000; % COW
	2	 0.0	 0.0	 3	   0.000000	   6.640715	   0.000000; % PEL
	2	 0.0	 0.0	 3	   0.000000	   7.032100	   0.000000; % PEL
	2	 0.0	 0.0	 3	   0.000000	   6.990018	   0.000000; % PEL
	2	 0.0	 0.0	 3	   0.000000	   1.073142	   0.000000; % NG
	2	 0.0	 0.0	 3	   0.000000	   1.257458	   0.000000; % NG
	2	 0.0	 0.0	 3	   0.000000	   7.129064	   0.000000; % PEL
	2	 0.0	 0.0	 3	   0.000000	   1.121352	   0.000000; % NG
	2	 0.0	 0.0	 3	   0.000000	   6.500338	   0.000000; % PEL
	2	 0.0	 0.0	 3	   0.000000	   6.866106	   0.000000; % PEL
	2	 0.0	 0.0	 3	   0.000000	   6.837256	   0.000000; % PEL
	2	 0.0	 0.0	 3	   0.000000	   1.079959	   0.000000; % NG
	2	 0.0	 0.0	 3	   0.000000	   0.669266	   0.000000; % NG
	2	 0.0	 0.0	 3	   0.000000	   1.107468	   0.000000; % NG
	2	 0.0	 0.0	 3	   0.000000	   7.118818	   0.000000; % PEL
	2	 0.0	 0.0	 3	   0.000000	   0.767918	   0.000000; % NG
	2	 0.0	 0.0	 3	   0.000000	   6.714263	   0.000000; % PEL
	2	 0.0	 0.0	 3	   0.000000	   6.776831	   0.000000; % PEL
	2	 0.0	 0.0	 3	   0.000000	   1.073846	   0.000000; % NG
	2	 0.0	 0.0	 3	   0.000000	   0.000000	   0.000000; % SYNC
	2	 0.0	 0.0	 3	   0.000000	   7.379275	   0.000000; % PEL
	2	 0.0	 0.0	 3	   0.000000	   0.923626	   0.000000; % NG
	2	 0.0	 0.0	 3	   0.000000	   6.793134	   0.000000; % PEL
	2	 0.0	 0.0	 3	   0.000000	   1.273004	   0.000000; % NG
	2	 0.0	 0.0	 3	   0.000000	   0.773607	   0.000000; % NG
	2	 0.0	 0.0	 3	   0.000000	   0.747897	   0.000000; % COW
	2	 0.0	 0.0	 3	   0.000000	   6.454895	   0.000000; % PEL
	2	 0.0	 0.0	 3	   0.000000	   1.380335	   0.000000; % NG
	2	 0.0	 0.0	 3	   0.000000	   6.917803	   0.000000; % PEL
	2	 0.0	 0.0	 3	   0.000000	   0.696952	   0.000000; % COW
	2	 0.0	 0.0	 3	   0.000000	   6.886399	   0.000000; % PEL
	2	 0.0	 0.0	 3	   0.000000	   1.162427	   0.000000; % NG
	2	 0.0	 0.0	 3	   0.000000	   6.854529	   0.000000; % PEL
	2	 0.0	 0.0	 3	   0.000000	   7.011939	   0.000000; % PEL
	2	 0.0	 0.0	 3	   0.000000	   0.962462	   0.000000; % COW
	2	 0.0	 0.0	 3	   0.000000	   6.929686	   0.000000; % PEL
	2	 0.0	 0.0	 3	   0.000000	   6.227326	   0.000000; % PEL
	2	 0.0	 0.0	 3	   0.000000	   7.130943	   0.000000; % PEL
	2	 0.0	 0.0	 3	   0.000000	   1.111935	   0.000000; % NG
	2	 0.0	 0.0	 3	   0.000000	   6.679921	   0.000000; % PEL
	2	 0.0	 0.0	 3	   0.000000	   1.082275	   0.000000; % COW
	2	 0.0	 0.0	 3	   0.000000	   0.909368	   0.000000; % NG
	2	 0.0	 0.0	 3	   0.000000	   0.000000	   0.000000; % SYNC
	2	 0.0	 0.0	 3	   0.000000	   0.935014	   0.000000; % NG
	2	 0.0	 0.0	 3	   0.000000	   6.835321	   0.000000; % PEL
	2	 0.0	 0.0	 3	   0.000000	   7.048193	   0.000000; % PEL
	2	 0.0	 0.0	 3	   0.000000	   6.608548	   0.000000; % PEL
	2	 0.0	 0.0	 3	   0.000000	   6.935996	   0.000000; % PEL
	2	 0.0	 0.0	 3	   0.000000	   7.175545	   0.000000; % PEL
	2	 0.0	 0.0	 3	   0.000000	   7.015354	   0.000000; % PEL
	2	 0.0	 0.0	 3	   0.000000	   1.215855	   0.000000; % NG
	2	 0.0	 0.0	 3	   0.000000	   1.018839	   0.000000; % NG
	2	 0.0	 0.0	 3	   0.000000	   0.444325	   0.000000; % COW
	2	 0.0	 0.0	 3	   0.000000	   0.000000	   0.000000; % SYNC
	2	 0.0	 0.0	 3	   0.000000	   7.102533	   0.000000; % PEL
	2	 0.0	 0.0	 3	   0.000000	   0.982461	   0.000000; % NG
	2	 0.0	 0.0	 3	   0.000000	   0.990502	   0.000000; % COW
	2	 0.0	 0.0	 3	   0.000000	   1.192606	   0.000000; % NG
	2	 0.0	 0.0	 3	   0.000000	   7.572672	   0.000000; % PEL
	2	 0.0	 0.0	 3	   0.000000	   0.715898	   0.000000; % NG
	2	 0.0	 0.0	 3	   0.000000	   6.582463	   0.000000; % PEL
	2	 0.0	 0.0	 3	   0.000000	   7.407650	   0.000000; % PEL
	2	 0.0	 0.0	 3	   0.000000	   0.000000	   0.000000; % SYNC
	2	 0.0	 0.0	 3	   0.000000	   0.000000	   0.000000; % SYNC
	2	 0.0	 0.0	 3	   0.000000	   0.000000	   0.000000; % SYNC
	2	 0.0	 0.0	 3	   0.000000	   0.936793	   0.000000; % NG
	2	 0.0	 0.0	 3	   0.000000	   1.239787	   0.000000; % NG
	2	 0.0	 0.0	 3	   0.000000	   0.000000	   0.000000; % SYNC
	2	 0.0	 0.0	 3	   0.000000	   0.801614	   0.000000; % NG
	2	 0.0	 0.0	 3	   0.000000	   0.000000	   0.000000; % SYNC
	2	 0.0	 0.0	 3	   0.000000	   6.177620	   0.000000; % PEL
	2	 0.0	 0.0	 3	   0.000000	   0.000000	   0.000000; % SYNC
	2	 0.0	 0.0	 3	   0.000000	   6.569400	   0.000000; % PEL
	2	 0.0	 0.0	 3	   0.000000	   1.089100	   0.000000; % NG
	2	 0.0	 0.0	 3	   0.000000	   1.045681	   0.000000; % NG
...
];

%% branch data
%	fbus	tbus	r	x	b	rateA	rateB	rateC	ratio	angle	status	angmin	angmax
mpc.branch = [
	7	 8	 0.00064	 0.0305	 0.0	 400.0	 400.0	 400.0	 1.0435	 -0.6	 1	 -30.0	 30.0;
	26	 28	 0.00036	 0.02519	 0.0	 500.0	 500.0	 500.0	 1.0565	 0.0	 1	 -30.0	 30.0;
	27	 29	 0.00036	 0.02519	 0.0	 500.0	 500.0	 500.0	 1.0566	 0.0	 1	 -30.0	 30.0;
	40	 42	 0.00034	 0.02097	 0.0	 500.0	 500.0	 500.0	 1.068	 0.0	 1	 -30.0	 30.0;
	43	 46	 0.00034	 0.02097	 0.0	 500.0	 500.0	 500.0	 1.0569	 0.0	 1	 -30.0	 30.0;
	55	 57	 0.00081	 0.03	 0.0	 400.0	 400.0	 400.0	 1.0765	 0.0	 1	 -30.0	 30.0;
	90	 92	 0.00075	 0.02444	 -0.00832	 330.0	 330.0	 330.0	 1.0631	 0.0	 1	 -30.0	 30.0;
	91	 93	 0.00075	 0.02469	 -0.008	 330.0	 330.0	 330.0	 1.0632	 0.0	 1	 -30.0	 30.0;
	125	 128	 0.0005	 0.02875	 -0.016	 400.0	 400.0	 400.0	 1.0639	 0.0	 1	 -30.0	 30.0;
	149	 150	 0.00064	 0.0305	 0.0	 400.0	 400.0	 400.0	 1.0826	 0.0	 1	 -30.0	 30.0;
	155	 158	 0.000232	 0.023	 0.0	 500.0	 500.0	 500.0	 1.089	 0.0	 1	 -30.0	 30.0;
	156	 159	 0.000232	 0.023	 0.0	 500.0	 500.0	 500.0	 1.0893	 0.0	 1	 -30.0	 30.0;
	170	 172	 0.00035	 0.02375	 0.0	 500.0	 500.0	 500.0	 1.1049	 0.0	 1	 -30.0	 30.0;
	183	 184	 0.00059	 0.03093	 0.0	 400.0	 400.0	 400.0	 1.091	 0.0	 1	 -30.0	 30.0;
	190	 192	 0.0004	 0.03	 0.0	 500.0	 500.0	 500.0	 1.1321	 0.0	 1	 -30.0	 30.0;
	2735	 158	 0.00031	 0.00338	 0.0992	 1386.0	 1386.0	 1386.0	 0.0	 0.0	 1	 -30.0	 30.0;
	2735	 159	 0.00031	 0.00338	 0.0992	 1386.0	 1386.0	 1386.0	 0.0	 0.0	 1	 -30.0	 30.0;
	2736	 68	 0.014341	 0.083531	 0.126034	 415.0	 415.0	 415.0	 0.0	 0.0	 1	 -30.0	 30.0;
	2734	 76	 0.01219	 0.070659	 0.117418	 412.0	 412.0	 412.0	 0.0	 0.0	 1	 -30.0	 30.0;
	2734	 105	 0.011781	 0.07087	 0.116838	 412.0	 412.0	 412.0	 0.0	 0.0	 1	 -30.0	 30.0;
	2739	 200	 9e-06	 9.4e-05	 0.0	 924.0	 924.0	 924.0	 0.0	 0.0	 1	 -30.0	 30.0;
	128	 2732	 0.0015	 0.01469	 0.40384	 1386.0	 1386.0	 1386.0	 0.0	 0.0	 0	 -30.0	 30.0;
	127	 2733	 0.001419	 0.014675	 0.4896	 1386.0	 1386.0	 1386.0	 0.0	 0.0	 1	 -30.0	 30.0;
	2737	 148	 0.001651	 0.015909	 0.046948	 373.0	 373.0	 373.0	 0.0	 0.0	 1	 -30.0	 30.0;
	2737	 149	 0.001651	 0.015909	 0.046948	 373.0	 373.0	 373.0	 0.0	 0.0	 1	 -30.0	 30.0;
	2738	 48	 0.00188	 0.02287	 0.6432	 831.0	 831.0	 831.0	 0.0	 0.0	 1	 -30.0	 30.0;
	2738	 49	 0.00188	 0.02287	 0.6432	 831.0	 831.0	 831.0	 0.0	 0.0	 1	 -30.0	 30.0;
	82	 2732	 0.003519	 0.039313	 1.0336	 1621.0	 1621.0	 1621.0	 0.0	 0.0	 1	 -30.0	 30.0;
	43	 23	 0.01345	 0.081141	 0.141134	 339.0	 339.0	 339.0	 0.0	 0.0	 1	 -30.0	 30.0;
	26	 90	 0.009091	 0.062401	 0.111417	 457.0	 457.0	 457.0	 0.0	 0.0	 1	 -30.0	 30.0;
	27	 91	 0.00868	 0.06405	 0.096994	 457.0	 457.0	 457.0	 0.0	 0.0	 1	 -30.0	 30.0;
	146	 30	 0.016961	 0.123659	 0.196988	 373.0	 373.0	 373.0	 0.0	 0.0	 1	 -30.0	 30.0;
	135	 34	 0.00512	 0.02618	 0.029621	 335.0	 335.0	 335.0	 0.0	 0.0	 1	 -30.0	 30.0;
	134	 20	 0.01068	 0.061961	 0.094961	 415.0	 415.0	 415.0	 0.0	 0.0	 1	 -30.0	 30.0;
	165	 21	 0.014651	 0.105891	 0.170852	 373.0	 373.0	 373.0	 0.0	 0.0	 1	 -30.0	 30.0;
	41	 109	 0.01488	 0.08161	 0.114805	 347.0	 347.0	 347.0	 0.0	 0.0	 1	 -30.0	 30.0;
	40	 91	 0.011159	 0.07231	 0.103673	 362.0	 362.0	 362.0	 0.0	 0.0	 1	 -30.0	 30.0;
	179	 83	 0.008616	 0.077645	 0.122239	 373.0	 373.0	 373.0	 0.0	 0.0	 1	 -30.0	 30.0;
	203	 166	 0.01176	 0.068289	 0.102802	 362.0	 362.0	 362.0	 0.0	 0.0	 1	 -30.0	 30.0;
	194	 166	 0.016818	 0.089091	 0.129935	 400.0	 400.0	 400.0	 0.0	 0.0	 1	 -30.0	 30.0;
	193	 165	 0.013843	 0.087025	 0.134842	 427.0	 427.0	 427.0	 0.0	 0.0	 1	 -30.0	 30.0;
	207	 168	 0.01676	 0.097169	 0.148685	 274.0	 274.0	 274.0	 0.0	 0.0	 1	 -30.0	 30.0;
	43	 12	 0.01269	 0.074979	 0.130196	 377.0	 377.0	 377.0	 0.0	 0.0	 1	 -30.0	 30.0;
	198	 18	 0.014091	 0.10413	 0.15972	 373.0	 373.0	 373.0	 0.0	 0.0	 1	 -30.0	 30.0;
	100	 55	 0.003719	 0.0438	 0.100962	 457.0	 457.0	 457.0	 0.0	 0.0	 1	 -30.0	 30.0;
	163	 82	 0.00194	 0.02056	 0.51584	 1316.0	 1316.0	 1316.0	 0.0	 0.0	 1	 -30.0	 30.0;
	45	 9	 0.0015	 0.01506	 0.4032	 1386.0	 1386.0	 1386.0	 0.0	 0.0	 1	 -30.0	 30.0;
	185	 151	 0.00294	 0.03463	 0.9216	 693.0	 693.0	 693.0	 0.0	 0.0	 1	 -30.0	 30.0;
	121	 57	 0.00169	 0.01994	 0.50624	 831.0	 831.0	 831.0	 0.0	 0.0	 1	 -30.0	 30.0;
	29	 93	 0.00137	 0.01625	 0.41184	 1386.0	 1386.0	 1386.0	 0.0	 0.0	 1	 -30.0	 30.0;
	28	 123	 0.00231	 0.02769	 0.70144	 1386.0	 1386.0	 1386.0	 0.0	 0.0	 1	 -30.0	 30.0;
	25	 192	 0.00207	 0.02474	 0.664	 831.0	 831.0	 831.0	 0.0	 0.0	 1	 -30.0	 30.0;
	120	 64	 0.0015	 0.01788	 0.4512	 831.0	 831.0	 831.0	 0.0	 0.0	 1	 -30.0	 30.0;
	122	 65	 0.00469	 0.05544	 1.4048	 831.0	 831.0	 831.0	 0.0	 0.0	 1	 -30.0	 30.0;
...